<?xml version="1.0" encoding="UTF-8"?>
<!-- generated on 2018-05-06 13:59:11.183015 by $Id$
  options: -n mapgrid.net.xml -e 28 -l <doubleminus>trip-attributes=departLane="best" departSpeed="max" departPos="random_free" -o trips.trips.xml
-->
<routes xmlns:xsi="http://www.w3.org/2001/XMLSchema-instance" xsi:noNamespaceSchemaLocation="http://sumo.dlr.de/xsd/routes_file.xsd">
    <trip id="0" depart="0.00" from="471698306#1" to="471698306#1" departLane="best" departSpeed="max" departPos="random_free"/>
    <trip id="1" depart="1.00" from="353154171#1" to="367938218" departLane="best" departSpeed="max" departPos="random_free"/>
    <trip id="2" depart="2.00" from="-303948346#0" to="303948410" departLane="best" departSpeed="max" departPos="random_free"/>
    <trip id="3" depart="3.00" from="28356592#0" to="-367938218" departLane="best" departSpeed="max" departPos="random_free"/>
    <trip id="4" depart="4.00" from="156261310#0" to="303948410" departLane="best" departSpeed="max" departPos="random_free"/>
    <trip id="5" depart="5.00" from="-303948346#0" to="-156261613#0" departLane="best" departSpeed="max" departPos="random_free"/>
    <trip id="6" depart="6.00" from="327728882#5" to="-156261356#2" departLane="best" departSpeed="max" departPos="random_free"/>
    <trip id="7" depart="7.00" from="156261609" to="-156261312#0" departLane="best" departSpeed="max" departPos="random_free"/>
    <trip id="8" depart="8.00" from="156261609" to="-450298078" departLane="best" departSpeed="max" departPos="random_free"/>
    <trip id="9" depart="9.00" from="353154174#1" to="156261488" departLane="best" departSpeed="max" departPos="random_free"/>
    <trip id="10" depart="10.00" from="-303948407" to="28410277#3" departLane="best" departSpeed="max" departPos="random_free"/>
    <trip id="11" depart="11.00" from="-353154181" to="-450298097" departLane="best" departSpeed="max" departPos="random_free"/>
    <trip id="12" depart="12.00" from="-353154171#0" to="450298078" departLane="best" departSpeed="max" departPos="random_free"/>
    <trip id="13" depart="13.00" from="422082728#0" to="353154181" departLane="best" departSpeed="max" departPos="random_free"/>
    <trip id="14" depart="14.00" from="-28410233#0" to="-303948405#0" departLane="best" departSpeed="max" departPos="random_free"/>
    <trip id="15" depart="15.00" from="367619833#1" to="422082686" departLane="best" departSpeed="max" departPos="random_free"/>
    <trip id="16" depart="16.00" from="-361247463#0" to="450525268" departLane="best" departSpeed="max" departPos="random_free"/>
    <trip id="17" depart="17.00" from="119109423#0" to="-422082701#0" departLane="best" departSpeed="max" departPos="random_free"/>
    <trip id="18" depart="18.00" from="307395967#1" to="369652618" departLane="best" departSpeed="max" departPos="random_free"/>
    <trip id="19" depart="19.00" from="156261310#0" to="-156261523" departLane="best" departSpeed="max" departPos="random_free"/>
    <trip id="20" depart="20.00" from="317197954#2" to="422082717#1" departLane="best" departSpeed="max" departPos="random_free"/>
    <trip id="21" depart="21.00" from="119109423#0" to="-156261488" departLane="best" departSpeed="max" departPos="random_free"/>
    <trip id="22" depart="22.00" from="313526162" to="-119109423#1" departLane="best" departSpeed="max" departPos="random_free"/>
    <trip id="23" depart="23.00" from="-303948346#1" to="471698306#1" departLane="best" departSpeed="max" departPos="random_free"/>
    <trip id="24" depart="24.00" from="222800434#0" to="156261251" departLane="best" departSpeed="max" departPos="random_free"/>
    <trip id="25" depart="25.00" from="28410233#0" to="-317197954#2" departLane="best" departSpeed="max" departPos="random_free"/>
    <trip id="26" depart="26.00" from="303948412#0" to="422082715#0" departLane="best" departSpeed="max" departPos="random_free"/>
    <trip id="27" depart="27.00" from="308511912" to="307395967#2" departLane="best" departSpeed="max" departPos="random_free"/>
</routes>
