<?xml version="1.0" encoding="UTF-8"?>
<!-- generated on 2018-02-19 01:29:03.854137 by $Id$
  options: -n mapgrid.net.xml -e 30 -l <doubleminus>trip-attributes=departLane="best" departSpeed="max" departPos="random_free" -o trips.trips.xml
-->
<routes xmlns:xsi="http://www.w3.org/2001/XMLSchema-instance" xsi:noNamespaceSchemaLocation="http://sumo.dlr.de/xsd/routes_file.xsd">
    <trip id="0" depart="0.00" from="0/0to0/1" to="3/0to4/0" departLane="best" departSpeed="max" departPos="random_free"/>
    <trip id="1" depart="1.00" from="2/1to2/0" to="4/1to3/1" departLane="best" departSpeed="max" departPos="random_free"/>
    <trip id="2" depart="2.00" from="2/2to2/1" to="3/0to3/1" departLane="best" departSpeed="max" departPos="random_free"/>
    <trip id="3" depart="3.00" from="2/0to3/0" to="0/2to1/2" departLane="best" departSpeed="max" departPos="random_free"/>
    <trip id="4" depart="4.00" from="0/0to0/1" to="1/2to0/2" departLane="best" departSpeed="max" departPos="random_free"/>
    <trip id="5" depart="5.00" from="4/2to4/1" to="1/1to1/0" departLane="best" departSpeed="max" departPos="random_free"/>
    <trip id="6" depart="6.00" from="3/2to3/1" to="3/0to2/0" departLane="best" departSpeed="max" departPos="random_free"/>
    <trip id="7" depart="7.00" from="0/0to1/0" to="1/2to0/2" departLane="best" departSpeed="max" departPos="random_free"/>
    <trip id="8" depart="8.00" from="3/1to2/1" to="2/2to1/2" departLane="best" departSpeed="max" departPos="random_free"/>
    <trip id="9" depart="9.00" from="4/1to4/0" to="0/2to0/1" departLane="best" departSpeed="max" departPos="random_free"/>
    <trip id="10" depart="10.00" from="3/1to2/1" to="2/1to2/0" departLane="best" departSpeed="max" departPos="random_free"/>
    <trip id="11" depart="11.00" from="3/2to2/2" to="4/1to4/0" departLane="best" departSpeed="max" departPos="random_free"/>
    <trip id="12" depart="12.00" from="2/2to1/2" to="0/1to0/2" departLane="best" departSpeed="max" departPos="random_free"/>
    <trip id="13" depart="13.00" from="2/0to1/0" to="4/0to3/0" departLane="best" departSpeed="max" departPos="random_free"/>
    <trip id="14" depart="14.00" from="4/0to3/0" to="1/1to1/2" departLane="best" departSpeed="max" departPos="random_free"/>
    <trip id="15" depart="15.00" from="2/0to2/1" to="2/1to1/1" departLane="best" departSpeed="max" departPos="random_free"/>
    <trip id="16" depart="16.00" from="3/0to3/1" to="3/1to4/1" departLane="best" departSpeed="max" departPos="random_free"/>
    <trip id="17" depart="17.00" from="0/1to0/2" to="0/0to1/0" departLane="best" departSpeed="max" departPos="random_free"/>
    <trip id="18" depart="18.00" from="3/0to3/1" to="2/1to1/1" departLane="best" departSpeed="max" departPos="random_free"/>
    <trip id="19" depart="19.00" from="2/2to1/2" to="3/1to2/1" departLane="best" departSpeed="max" departPos="random_free"/>
    <trip id="20" depart="20.00" from="3/0to4/0" to="2/2to2/1" departLane="best" departSpeed="max" departPos="random_free"/>
    <trip id="21" depart="21.00" from="0/2to1/2" to="3/0to4/0" departLane="best" departSpeed="max" departPos="random_free"/>
    <trip id="22" depart="22.00" from="0/1to0/0" to="4/0to4/1" departLane="best" departSpeed="max" departPos="random_free"/>
    <trip id="23" depart="23.00" from="3/2to2/2" to="2/1to2/2" departLane="best" departSpeed="max" departPos="random_free"/>
    <trip id="24" depart="24.00" from="4/0to3/0" to="1/2to0/2" departLane="best" departSpeed="max" departPos="random_free"/>
    <trip id="25" depart="25.00" from="2/0to3/0" to="0/1to0/0" departLane="best" departSpeed="max" departPos="random_free"/>
    <trip id="26" depart="26.00" from="1/0to1/1" to="0/1to1/1" departLane="best" departSpeed="max" departPos="random_free"/>
    <trip id="27" depart="27.00" from="3/2to2/2" to="2/0to3/0" departLane="best" departSpeed="max" departPos="random_free"/>
    <trip id="28" depart="28.00" from="2/1to1/1" to="3/0to4/0" departLane="best" departSpeed="max" departPos="random_free"/>
    <trip id="29" depart="29.00" from="2/1to2/2" to="1/0to1/1" departLane="best" departSpeed="max" departPos="random_free"/>
</routes>
