<?xml version="1.0" encoding="UTF-8"?>
<!-- generated on 2018-05-04 18:23:16.657620 by $Id$
  options: -n mapgrid.net.xml -e 28 -l <doubleminus>trip-attributes=departLane="best" departSpeed="max" departPos="random_free" -o trips.trips.xml
-->
<routes xmlns:xsi="http://www.w3.org/2001/XMLSchema-instance" xsi:noNamespaceSchemaLocation="http://sumo.dlr.de/xsd/routes_file.xsd">
    <trip id="0" depart="0.00" from="4/5to4/4" to="4/8to3/8" departLane="best" departSpeed="max" departPos="random_free"/>
    <trip id="1" depart="1.00" from="5/10to4/10" to="4/1to3/1" departLane="best" departSpeed="max" departPos="random_free"/>
    <trip id="2" depart="2.00" from="1/5to1/4" to="4/1to4/2" departLane="best" departSpeed="max" departPos="random_free"/>
    <trip id="3" depart="3.00" from="5/5to4/5" to="7/3to7/4" departLane="best" departSpeed="max" departPos="random_free"/>
    <trip id="4" depart="4.00" from="8/10to8/9" to="3/2to3/1" departLane="best" departSpeed="max" departPos="random_free"/>
    <trip id="5" depart="5.00" from="7/10to6/10" to="1/2to1/3" departLane="best" departSpeed="max" departPos="random_free"/>
    <trip id="6" depart="6.00" from="5/9to6/9" to="7/6to8/6" departLane="best" departSpeed="max" departPos="random_free"/>
    <trip id="7" depart="7.00" from="5/4to5/3" to="0/0to1/0" departLane="best" departSpeed="max" departPos="random_free"/>
    <trip id="8" depart="8.00" from="5/10to5/9" to="4/5to4/4" departLane="best" departSpeed="max" departPos="random_free"/>
    <trip id="9" depart="9.00" from="9/6to8/6" to="8/0to9/0" departLane="best" departSpeed="max" departPos="random_free"/>
    <trip id="10" depart="10.00" from="4/3to3/3" to="4/6to4/7" departLane="best" departSpeed="max" departPos="random_free"/>
    <trip id="11" depart="11.00" from="3/10to3/9" to="6/9to5/9" departLane="best" departSpeed="max" departPos="random_free"/>
    <trip id="12" depart="12.00" from="8/1to7/1" to="4/4to5/4" departLane="best" departSpeed="max" departPos="random_free"/>
    <trip id="13" depart="13.00" from="2/1to2/2" to="4/0to4/1" departLane="best" departSpeed="max" departPos="random_free"/>
    <trip id="14" depart="14.00" from="7/4to7/3" to="7/5to7/4" departLane="best" departSpeed="max" departPos="random_free"/>
    <trip id="15" depart="15.00" from="1/1to1/0" to="0/4to0/3" departLane="best" departSpeed="max" departPos="random_free"/>
    <trip id="16" depart="16.00" from="10/2to10/1" to="2/6to2/7" departLane="best" departSpeed="max" departPos="random_free"/>
    <trip id="17" depart="17.00" from="1/8to1/7" to="6/1to7/1" departLane="best" departSpeed="max" departPos="random_free"/>
    <trip id="18" depart="18.00" from="4/4to4/3" to="5/6to5/5" departLane="best" departSpeed="max" departPos="random_free"/>
    <trip id="19" depart="19.00" from="0/10to1/10" to="5/6to5/7" departLane="best" departSpeed="max" departPos="random_free"/>
    <trip id="20" depart="20.00" from="5/5to5/4" to="8/3to7/3" departLane="best" departSpeed="max" departPos="random_free"/>
    <trip id="21" depart="21.00" from="1/5to0/5" to="2/9to2/10" departLane="best" departSpeed="max" departPos="random_free"/>
    <trip id="22" depart="22.00" from="5/7to4/7" to="5/10to5/9" departLane="best" departSpeed="max" departPos="random_free"/>
    <trip id="23" depart="23.00" from="7/0to6/0" to="10/7to10/6" departLane="best" departSpeed="max" departPos="random_free"/>
    <trip id="24" depart="24.00" from="6/9to6/8" to="5/8to4/8" departLane="best" departSpeed="max" departPos="random_free"/>
    <trip id="25" depart="25.00" from="8/8to9/8" to="3/5to3/4" departLane="best" departSpeed="max" departPos="random_free"/>
    <trip id="26" depart="26.00" from="8/9to8/10" to="9/8to8/8" departLane="best" departSpeed="max" departPos="random_free"/>
    <trip id="27" depart="27.00" from="2/7to1/7" to="2/9to2/10" departLane="best" departSpeed="max" departPos="random_free"/>
</routes>
