<?xml version="1.0" encoding="UTF-8"?>
<!-- generated on 2018-04-06 23:53:16.174094 by $Id$
  options: -n mapgrid.net.xml -e 28 -l <doubleminus>trip-attributes=departLane="best" departSpeed="max" departPos="random_free" -o trips.trips.xml
-->
<routes xmlns:xsi="http://www.w3.org/2001/XMLSchema-instance" xsi:noNamespaceSchemaLocation="http://sumo.dlr.de/xsd/routes_file.xsd">
    <trip id="0" depart="0.00" from="0/0to1/0" to="3/8to3/7" departLane="best" departSpeed="max" departPos="random_free"/>
    <trip id="1" depart="1.00" from="2/2to2/3" to="4/1to4/2" departLane="best" departSpeed="max" departPos="random_free"/>
    <trip id="2" depart="2.00" from="10/7to9/7" to="8/4to7/4" departLane="best" departSpeed="max" departPos="random_free"/>
    <trip id="3" depart="3.00" from="2/6to1/6" to="9/6to9/5" departLane="best" departSpeed="max" departPos="random_free"/>
    <trip id="4" depart="4.00" from="4/10to4/9" to="1/2to0/2" departLane="best" departSpeed="max" departPos="random_free"/>
    <trip id="5" depart="5.00" from="2/0to2/1" to="0/2to0/3" departLane="best" departSpeed="max" departPos="random_free"/>
    <trip id="6" depart="6.00" from="5/0to5/1" to="6/9to6/10" departLane="best" departSpeed="max" departPos="random_free"/>
    <trip id="7" depart="7.00" from="6/8to6/7" to="5/9to6/9" departLane="best" departSpeed="max" departPos="random_free"/>
    <trip id="8" depart="8.00" from="4/10to3/10" to="2/4to2/3" departLane="best" departSpeed="max" departPos="random_free"/>
    <trip id="9" depart="9.00" from="5/2to5/3" to="0/7to0/8" departLane="best" departSpeed="max" departPos="random_free"/>
    <trip id="10" depart="10.00" from="8/1to9/1" to="4/4to4/3" departLane="best" departSpeed="max" departPos="random_free"/>
    <trip id="11" depart="11.00" from="8/9to8/10" to="8/1to8/0" departLane="best" departSpeed="max" departPos="random_free"/>
    <trip id="12" depart="12.00" from="3/9to4/9" to="5/0to5/1" departLane="best" departSpeed="max" departPos="random_free"/>
    <trip id="13" depart="13.00" from="8/4to7/4" to="9/4to9/5" departLane="best" departSpeed="max" departPos="random_free"/>
    <trip id="14" depart="14.00" from="3/3to3/4" to="10/5to9/5" departLane="best" departSpeed="max" departPos="random_free"/>
    <trip id="15" depart="15.00" from="5/1to5/0" to="7/8to6/8" departLane="best" departSpeed="max" departPos="random_free"/>
    <trip id="16" depart="16.00" from="2/7to2/6" to="3/1to3/2" departLane="best" departSpeed="max" departPos="random_free"/>
    <trip id="17" depart="17.00" from="5/8to4/8" to="9/8to8/8" departLane="best" departSpeed="max" departPos="random_free"/>
    <trip id="18" depart="18.00" from="2/3to1/3" to="7/2to7/1" departLane="best" departSpeed="max" departPos="random_free"/>
    <trip id="19" depart="19.00" from="9/8to10/8" to="1/2to1/3" departLane="best" departSpeed="max" departPos="random_free"/>
    <trip id="20" depart="20.00" from="9/7to9/8" to="10/2to9/2" departLane="best" departSpeed="max" departPos="random_free"/>
    <trip id="21" depart="21.00" from="6/0to5/0" to="0/8to0/9" departLane="best" departSpeed="max" departPos="random_free"/>
    <trip id="22" depart="22.00" from="2/2to2/1" to="2/1to3/1" departLane="best" departSpeed="max" departPos="random_free"/>
    <trip id="23" depart="23.00" from="0/5to0/4" to="8/4to9/4" departLane="best" departSpeed="max" departPos="random_free"/>
    <trip id="24" depart="24.00" from="6/9to5/9" to="7/10to8/10" departLane="best" departSpeed="max" departPos="random_free"/>
    <trip id="25" depart="25.00" from="3/4to4/4" to="3/7to3/6" departLane="best" departSpeed="max" departPos="random_free"/>
    <trip id="26" depart="26.00" from="0/3to1/3" to="5/4to5/5" departLane="best" departSpeed="max" departPos="random_free"/>
    <trip id="27" depart="27.00" from="5/9to5/10" to="5/2to5/1" departLane="best" departSpeed="max" departPos="random_free"/>
</routes>
