<?xml version="1.0" encoding="UTF-8"?>
<!-- generated on 2018-04-26 02:33:35.937670 by $Id$
  options: -n mapgrid.net.xml -e 28 -l <doubleminus>trip-attributes=departLane="best" departSpeed="max" departPos="random_free" -o trips.trips.xml
-->
<routes xmlns:xsi="http://www.w3.org/2001/XMLSchema-instance" xsi:noNamespaceSchemaLocation="http://sumo.dlr.de/xsd/routes_file.xsd">
    <trip id="0" depart="0.00" from="9/5to8/5" to="3/2to2/2" departLane="best" departSpeed="max" departPos="random_free"/>
    <trip id="1" depart="1.00" from="9/1to8/1" to="4/7to4/6" departLane="best" departSpeed="max" departPos="random_free"/>
    <trip id="2" depart="2.00" from="9/4to8/4" to="8/8to9/8" departLane="best" departSpeed="max" departPos="random_free"/>
    <trip id="3" depart="3.00" from="2/2to2/3" to="2/3to2/2" departLane="best" departSpeed="max" departPos="random_free"/>
    <trip id="4" depart="4.00" from="4/9to4/10" to="5/10to5/9" departLane="best" departSpeed="max" departPos="random_free"/>
    <trip id="5" depart="5.00" from="5/4to4/4" to="6/9to6/8" departLane="best" departSpeed="max" departPos="random_free"/>
    <trip id="6" depart="6.00" from="7/6to8/6" to="0/10to1/10" departLane="best" departSpeed="max" departPos="random_free"/>
    <trip id="7" depart="7.00" from="8/5to8/6" to="9/0to8/0" departLane="best" departSpeed="max" departPos="random_free"/>
    <trip id="8" depart="8.00" from="3/8to3/7" to="6/5to5/5" departLane="best" departSpeed="max" departPos="random_free"/>
    <trip id="9" depart="9.00" from="7/9to8/9" to="1/4to1/5" departLane="best" departSpeed="max" departPos="random_free"/>
    <trip id="10" depart="10.00" from="2/6to1/6" to="2/1to2/2" departLane="best" departSpeed="max" departPos="random_free"/>
    <trip id="11" depart="11.00" from="8/4to7/4" to="10/5to10/6" departLane="best" departSpeed="max" departPos="random_free"/>
    <trip id="12" depart="12.00" from="9/6to8/6" to="9/9to8/9" departLane="best" departSpeed="max" departPos="random_free"/>
    <trip id="13" depart="13.00" from="2/1to3/1" to="2/10to1/10" departLane="best" departSpeed="max" departPos="random_free"/>
    <trip id="14" depart="14.00" from="9/6to8/6" to="8/0to8/1" departLane="best" departSpeed="max" departPos="random_free"/>
    <trip id="15" depart="15.00" from="6/0to5/0" to="8/0to9/0" departLane="best" departSpeed="max" departPos="random_free"/>
    <trip id="16" depart="16.00" from="2/4to1/4" to="1/8to1/7" departLane="best" departSpeed="max" departPos="random_free"/>
    <trip id="17" depart="17.00" from="3/3to3/4" to="7/9to8/9" departLane="best" departSpeed="max" departPos="random_free"/>
    <trip id="18" depart="18.00" from="10/3to10/4" to="4/2to4/3" departLane="best" departSpeed="max" departPos="random_free"/>
    <trip id="19" depart="19.00" from="2/4to1/4" to="6/1to6/2" departLane="best" departSpeed="max" departPos="random_free"/>
    <trip id="20" depart="20.00" from="3/8to3/7" to="4/2to5/2" departLane="best" departSpeed="max" departPos="random_free"/>
    <trip id="21" depart="21.00" from="4/10to4/9" to="6/1to6/0" departLane="best" departSpeed="max" departPos="random_free"/>
    <trip id="22" depart="22.00" from="2/2to2/3" to="2/3to3/3" departLane="best" departSpeed="max" departPos="random_free"/>
    <trip id="23" depart="23.00" from="4/1to4/0" to="0/7to1/7" departLane="best" departSpeed="max" departPos="random_free"/>
    <trip id="24" depart="24.00" from="4/4to3/4" to="5/4to5/3" departLane="best" departSpeed="max" departPos="random_free"/>
    <trip id="25" depart="25.00" from="5/4to6/4" to="6/5to6/4" departLane="best" departSpeed="max" departPos="random_free"/>
    <trip id="26" depart="26.00" from="3/9to3/8" to="10/10to10/9" departLane="best" departSpeed="max" departPos="random_free"/>
    <trip id="27" depart="27.00" from="0/6to1/6" to="5/8to6/8" departLane="best" departSpeed="max" departPos="random_free"/>
</routes>
