<?xml version="1.0" encoding="UTF-8"?>
<!-- generated on 2018-04-30 19:17:34.020126 by $Id$
  options: -n mapgrid.net.xml -e 38 -l <doubleminus>trip-attributes=departLane="best" departSpeed="max" departPos="random_free" color="1,0,0" -o trips.trips.xml
-->
<routes xmlns:xsi="http://www.w3.org/2001/XMLSchema-instance" xsi:noNamespaceSchemaLocation="http://sumo.dlr.de/xsd/routes_file.xsd">
    <trip id="0" depart="0.00" from="10/1to10/2" to="8/7to8/6" departLane="best" departSpeed="max" departPos="random_free" color="1,0,0"/>
    <trip id="1" depart="1.00" from="8/5to8/6" to="10/6to9/6" departLane="best" departSpeed="max" departPos="random_free" color="1,0,0"/>
    <trip id="2" depart="2.00" from="5/1to4/1" to="3/7to3/8" departLane="best" departSpeed="max" departPos="random_free" color="1,0,0"/>
    <trip id="3" depart="3.00" from="0/4to0/5" to="6/10to6/9" departLane="best" departSpeed="max" departPos="random_free" color="1,0,0"/>
    <trip id="4" depart="4.00" from="9/6to8/6" to="1/0to0/0" departLane="best" departSpeed="max" departPos="random_free" color="1,0,0"/>
    <trip id="5" depart="5.00" from="3/1to4/1" to="3/0to4/0" departLane="best" departSpeed="max" departPos="random_free" color="1,0,0"/>
    <trip id="6" depart="6.00" from="4/6to4/7" to="4/10to3/10" departLane="best" departSpeed="max" departPos="random_free" color="1,0,0"/>
    <trip id="7" depart="7.00" from="6/2to5/2" to="8/1to7/1" departLane="best" departSpeed="max" departPos="random_free" color="1,0,0"/>
    <trip id="8" depart="8.00" from="4/6to4/7" to="3/1to4/1" departLane="best" departSpeed="max" departPos="random_free" color="1,0,0"/>
    <trip id="9" depart="9.00" from="4/9to3/9" to="4/1to3/1" departLane="best" departSpeed="max" departPos="random_free" color="1,0,0"/>
    <trip id="10" depart="10.00" from="3/8to3/9" to="2/7to3/7" departLane="best" departSpeed="max" departPos="random_free" color="1,0,0"/>
    <trip id="11" depart="11.00" from="6/8to6/7" to="8/6to8/5" departLane="best" departSpeed="max" departPos="random_free" color="1,0,0"/>
    <trip id="12" depart="12.00" from="3/10to3/9" to="6/1to5/1" departLane="best" departSpeed="max" departPos="random_free" color="1,0,0"/>
    <trip id="13" depart="13.00" from="2/3to2/4" to="1/4to2/4" departLane="best" departSpeed="max" departPos="random_free" color="1,0,0"/>
    <trip id="14" depart="14.00" from="0/10to1/10" to="3/3to2/3" departLane="best" departSpeed="max" departPos="random_free" color="1,0,0"/>
    <trip id="15" depart="15.00" from="7/9to7/10" to="6/4to5/4" departLane="best" departSpeed="max" departPos="random_free" color="1,0,0"/>
    <trip id="16" depart="16.00" from="9/2to10/2" to="4/8to5/8" departLane="best" departSpeed="max" departPos="random_free" color="1,0,0"/>
    <trip id="17" depart="17.00" from="6/8to5/8" to="3/5to3/6" departLane="best" departSpeed="max" departPos="random_free" color="1,0,0"/>
    <trip id="18" depart="18.00" from="2/7to2/8" to="5/5to4/5" departLane="best" departSpeed="max" departPos="random_free" color="1,0,0"/>
    <trip id="19" depart="19.00" from="5/1to5/2" to="1/8to0/8" departLane="best" departSpeed="max" departPos="random_free" color="1,0,0"/>
    <trip id="20" depart="20.00" from="4/10to3/10" to="0/6to0/7" departLane="best" departSpeed="max" departPos="random_free" color="1,0,0"/>
    <trip id="21" depart="21.00" from="5/7to4/7" to="6/0to7/0" departLane="best" departSpeed="max" departPos="random_free" color="1,0,0"/>
    <trip id="22" depart="22.00" from="10/1to10/0" to="2/2to2/3" departLane="best" departSpeed="max" departPos="random_free" color="1,0,0"/>
    <trip id="23" depart="23.00" from="8/7to7/7" to="3/2to2/2" departLane="best" departSpeed="max" departPos="random_free" color="1,0,0"/>
    <trip id="24" depart="24.00" from="5/9to5/8" to="2/8to2/7" departLane="best" departSpeed="max" departPos="random_free" color="1,0,0"/>
    <trip id="25" depart="25.00" from="7/6to7/7" to="9/1to9/0" departLane="best" departSpeed="max" departPos="random_free" color="1,0,0"/>
    <trip id="26" depart="26.00" from="3/7to3/6" to="4/7to3/7" departLane="best" departSpeed="max" departPos="random_free" color="1,0,0"/>
    <trip id="27" depart="27.00" from="2/1to2/0" to="10/3to9/3" departLane="best" departSpeed="max" departPos="random_free" color="1,0,0"/>
    <trip id="28" depart="28.00" from="9/4to10/4" to="10/6to10/5" departLane="best" departSpeed="max" departPos="random_free" color="1,0,0"/>
    <trip id="29" depart="29.00" from="0/5to0/6" to="3/9to3/10" departLane="best" departSpeed="max" departPos="random_free" color="1,0,0"/>
    <trip id="30" depart="30.00" from="8/4to7/4" to="1/2to2/2" departLane="best" departSpeed="max" departPos="random_free" color="1,0,0"/>
    <trip id="31" depart="31.00" from="1/2to1/3" to="6/6to6/5" departLane="best" departSpeed="max" departPos="random_free" color="1,0,0"/>
    <trip id="32" depart="32.00" from="2/10to3/10" to="6/8to6/7" departLane="best" departSpeed="max" departPos="random_free" color="1,0,0"/>
    <trip id="33" depart="33.00" from="8/7to8/6" to="5/10to5/9" departLane="best" departSpeed="max" departPos="random_free" color="1,0,0"/>
    <trip id="34" depart="34.00" from="4/6to4/7" to="9/7to10/7" departLane="best" departSpeed="max" departPos="random_free" color="1,0,0"/>
    <trip id="35" depart="35.00" from="7/7to7/8" to="0/1to0/2" departLane="best" departSpeed="max" departPos="random_free" color="1,0,0"/>
    <trip id="36" depart="36.00" from="0/7to0/8" to="1/10to1/9" departLane="best" departSpeed="max" departPos="random_free" color="1,0,0"/>
    <trip id="37" depart="37.00" from="4/8to5/8" to="7/9to7/10" departLane="best" departSpeed="max" departPos="random_free" color="1,0,0"/>
</routes>
