<?xml version="1.0" encoding="UTF-8"?>
<!-- generated on 2018-04-06 23:20:27.361346 by $Id$
  options: -n mapgrid.net.xml -e 28 -l <doubleminus>trip-attributes=departLane="best" departSpeed="max" departPos="random_free" -o trips.trips.xml
-->
<routes xmlns:xsi="http://www.w3.org/2001/XMLSchema-instance" xsi:noNamespaceSchemaLocation="http://sumo.dlr.de/xsd/routes_file.xsd">
    <trip id="0" depart="0.00" from="0/0to0/1" to="7/6to8/6" departLane="best" departSpeed="max" departPos="random_free"/>
    <trip id="1" depart="1.00" from="10/5to10/4" to="4/0to4/1" departLane="best" departSpeed="max" departPos="random_free"/>
    <trip id="2" depart="2.00" from="4/7to4/6" to="3/2to3/1" departLane="best" departSpeed="max" departPos="random_free"/>
    <trip id="3" depart="3.00" from="8/1to8/2" to="6/3to6/2" departLane="best" departSpeed="max" departPos="random_free"/>
    <trip id="4" depart="4.00" from="8/5to8/6" to="3/1to4/1" departLane="best" departSpeed="max" departPos="random_free"/>
    <trip id="5" depart="5.00" from="3/3to2/3" to="10/2to10/3" departLane="best" departSpeed="max" departPos="random_free"/>
    <trip id="6" depart="6.00" from="8/10to8/9" to="6/1to7/1" departLane="best" departSpeed="max" departPos="random_free"/>
    <trip id="7" depart="7.00" from="9/2to9/1" to="9/8to8/8" departLane="best" departSpeed="max" departPos="random_free"/>
    <trip id="8" depart="8.00" from="7/3to7/4" to="8/7to9/7" departLane="best" departSpeed="max" departPos="random_free"/>
    <trip id="9" depart="9.00" from="8/4to7/4" to="1/7to1/6" departLane="best" departSpeed="max" departPos="random_free"/>
    <trip id="10" depart="10.00" from="4/5to4/4" to="5/7to5/6" departLane="best" departSpeed="max" departPos="random_free"/>
    <trip id="11" depart="11.00" from="9/1to8/1" to="0/6to0/5" departLane="best" departSpeed="max" departPos="random_free"/>
    <trip id="12" depart="12.00" from="3/7to3/8" to="3/0to3/1" departLane="best" departSpeed="max" departPos="random_free"/>
    <trip id="13" depart="13.00" from="1/1to0/1" to="10/2to9/2" departLane="best" departSpeed="max" departPos="random_free"/>
    <trip id="14" depart="14.00" from="3/9to3/10" to="2/4to3/4" departLane="best" departSpeed="max" departPos="random_free"/>
    <trip id="15" depart="15.00" from="0/4to1/4" to="0/3to1/3" departLane="best" departSpeed="max" departPos="random_free"/>
    <trip id="16" depart="16.00" from="9/2to9/1" to="7/4to6/4" departLane="best" departSpeed="max" departPos="random_free"/>
    <trip id="17" depart="17.00" from="2/6to3/6" to="8/4to8/3" departLane="best" departSpeed="max" departPos="random_free"/>
    <trip id="18" depart="18.00" from="6/8to5/8" to="5/6to6/6" departLane="best" departSpeed="max" departPos="random_free"/>
    <trip id="19" depart="19.00" from="9/4to8/4" to="9/3to10/3" departLane="best" departSpeed="max" departPos="random_free"/>
    <trip id="20" depart="20.00" from="3/6to2/6" to="10/5to10/4" departLane="best" departSpeed="max" departPos="random_free"/>
    <trip id="21" depart="21.00" from="9/3to8/3" to="0/1to1/1" departLane="best" departSpeed="max" departPos="random_free"/>
    <trip id="22" depart="22.00" from="2/10to1/10" to="8/3to7/3" departLane="best" departSpeed="max" departPos="random_free"/>
    <trip id="23" depart="23.00" from="7/1to7/2" to="6/10to5/10" departLane="best" departSpeed="max" departPos="random_free"/>
    <trip id="24" depart="24.00" from="6/7to6/6" to="4/7to4/6" departLane="best" departSpeed="max" departPos="random_free"/>
    <trip id="25" depart="25.00" from="5/4to5/5" to="2/3to2/2" departLane="best" departSpeed="max" departPos="random_free"/>
    <trip id="26" depart="26.00" from="6/4to5/4" to="7/5to8/5" departLane="best" departSpeed="max" departPos="random_free"/>
    <trip id="27" depart="27.00" from="2/5to2/4" to="4/8to3/8" departLane="best" departSpeed="max" departPos="random_free"/>
</routes>
