<?xml version="1.0" encoding="UTF-8"?>
<!-- generated on 2018-05-03 22:45:31.674607 by $Id$
  options: -n mapgrid.net.xml -e 28 -l <doubleminus>trip-attributes=departLane="best" departSpeed="max" departPos="random_free" -o trips.trips.xml
-->
<routes xmlns:xsi="http://www.w3.org/2001/XMLSchema-instance" xsi:noNamespaceSchemaLocation="http://sumo.dlr.de/xsd/routes_file.xsd">
    <trip id="0" depart="0.00" from="8/10to8/9" to="3/0to4/0" departLane="best" departSpeed="max" departPos="random_free"/>
    <trip id="1" depart="1.00" from="9/6to10/6" to="3/2to2/2" departLane="best" departSpeed="max" departPos="random_free"/>
    <trip id="2" depart="2.00" from="4/6to4/7" to="0/9to0/10" departLane="best" departSpeed="max" departPos="random_free"/>
    <trip id="3" depart="3.00" from="7/9to8/9" to="2/10to1/10" departLane="best" departSpeed="max" departPos="random_free"/>
    <trip id="4" depart="4.00" from="5/7to4/7" to="8/6to9/6" departLane="best" departSpeed="max" departPos="random_free"/>
    <trip id="5" depart="5.00" from="6/2to7/2" to="2/9to1/9" departLane="best" departSpeed="max" departPos="random_free"/>
    <trip id="6" depart="6.00" from="4/6to3/6" to="9/2to8/2" departLane="best" departSpeed="max" departPos="random_free"/>
    <trip id="7" depart="7.00" from="1/6to2/6" to="4/7to5/7" departLane="best" departSpeed="max" departPos="random_free"/>
    <trip id="8" depart="8.00" from="6/8to6/7" to="3/2to4/2" departLane="best" departSpeed="max" departPos="random_free"/>
    <trip id="9" depart="9.00" from="6/7to6/6" to="6/8to6/7" departLane="best" departSpeed="max" departPos="random_free"/>
    <trip id="10" depart="10.00" from="3/3to2/3" to="3/8to3/9" departLane="best" departSpeed="max" departPos="random_free"/>
    <trip id="11" depart="11.00" from="9/6to9/5" to="5/4to6/4" departLane="best" departSpeed="max" departPos="random_free"/>
    <trip id="12" depart="12.00" from="7/7to7/8" to="3/5to4/5" departLane="best" departSpeed="max" departPos="random_free"/>
    <trip id="13" depart="13.00" from="10/7to9/7" to="0/9to0/10" departLane="best" departSpeed="max" departPos="random_free"/>
    <trip id="14" depart="14.00" from="4/8to3/8" to="8/3to9/3" departLane="best" departSpeed="max" departPos="random_free"/>
    <trip id="15" depart="15.00" from="9/2to8/2" to="3/9to4/9" departLane="best" departSpeed="max" departPos="random_free"/>
    <trip id="16" depart="16.00" from="3/4to3/5" to="2/6to2/5" departLane="best" departSpeed="max" departPos="random_free"/>
    <trip id="17" depart="17.00" from="0/1to0/0" to="2/5to3/5" departLane="best" departSpeed="max" departPos="random_free"/>
    <trip id="18" depart="18.00" from="3/2to4/2" to="2/4to2/3" departLane="best" departSpeed="max" departPos="random_free"/>
    <trip id="19" depart="19.00" from="4/3to3/3" to="3/9to2/9" departLane="best" departSpeed="max" departPos="random_free"/>
    <trip id="20" depart="20.00" from="7/0to8/0" to="1/5to2/5" departLane="best" departSpeed="max" departPos="random_free"/>
    <trip id="21" depart="21.00" from="8/5to9/5" to="2/3to2/4" departLane="best" departSpeed="max" departPos="random_free"/>
    <trip id="22" depart="22.00" from="8/6to8/7" to="0/7to0/8" departLane="best" departSpeed="max" departPos="random_free"/>
    <trip id="23" depart="23.00" from="8/8to7/8" to="6/9to7/9" departLane="best" departSpeed="max" departPos="random_free"/>
    <trip id="24" depart="24.00" from="6/0to7/0" to="2/2to3/2" departLane="best" departSpeed="max" departPos="random_free"/>
    <trip id="25" depart="25.00" from="7/9to7/8" to="2/4to3/4" departLane="best" departSpeed="max" departPos="random_free"/>
    <trip id="26" depart="26.00" from="2/7to3/7" to="5/9to5/10" departLane="best" departSpeed="max" departPos="random_free"/>
    <trip id="27" depart="27.00" from="4/4to5/4" to="1/2to1/1" departLane="best" departSpeed="max" departPos="random_free"/>
</routes>
