<?xml version="1.0" encoding="UTF-8"?>
<!-- generated on 2018-04-06 23:49:19.525267 by $Id$
  options: -n mapgrid.net.xml -e 28 -l <doubleminus>trip-attributes=departLane="best" departSpeed="max" departPos="random_free" -o trips.trips.xml
-->
<routes xmlns:xsi="http://www.w3.org/2001/XMLSchema-instance" xsi:noNamespaceSchemaLocation="http://sumo.dlr.de/xsd/routes_file.xsd">
    <trip id="0" depart="0.00" from="9/2to9/3" to="8/8to8/7" departLane="best" departSpeed="max" departPos="random_free"/>
    <trip id="1" depart="1.00" from="4/6to4/5" to="5/10to4/10" departLane="best" departSpeed="max" departPos="random_free"/>
    <trip id="2" depart="2.00" from="7/6to8/6" to="4/7to4/6" departLane="best" departSpeed="max" departPos="random_free"/>
    <trip id="3" depart="3.00" from="1/8to2/8" to="7/6to6/6" departLane="best" departSpeed="max" departPos="random_free"/>
    <trip id="4" depart="4.00" from="5/2to4/2" to="8/3to8/4" departLane="best" departSpeed="max" departPos="random_free"/>
    <trip id="5" depart="5.00" from="5/5to6/5" to="7/3to7/4" departLane="best" departSpeed="max" departPos="random_free"/>
    <trip id="6" depart="6.00" from="5/5to4/5" to="2/9to2/8" departLane="best" departSpeed="max" departPos="random_free"/>
    <trip id="7" depart="7.00" from="3/10to2/10" to="5/0to6/0" departLane="best" departSpeed="max" departPos="random_free"/>
    <trip id="8" depart="8.00" from="0/4to0/3" to="3/4to3/3" departLane="best" departSpeed="max" departPos="random_free"/>
    <trip id="9" depart="9.00" from="0/7to1/7" to="1/9to2/9" departLane="best" departSpeed="max" departPos="random_free"/>
    <trip id="10" depart="10.00" from="0/1to0/2" to="4/0to5/0" departLane="best" departSpeed="max" departPos="random_free"/>
    <trip id="11" depart="11.00" from="9/4to10/4" to="5/5to5/4" departLane="best" departSpeed="max" departPos="random_free"/>
    <trip id="12" depart="12.00" from="5/5to5/6" to="6/10to6/9" departLane="best" departSpeed="max" departPos="random_free"/>
    <trip id="13" depart="13.00" from="8/6to8/5" to="1/10to2/10" departLane="best" departSpeed="max" departPos="random_free"/>
    <trip id="14" depart="14.00" from="7/7to8/7" to="0/3to0/2" departLane="best" departSpeed="max" departPos="random_free"/>
    <trip id="15" depart="15.00" from="8/7to8/8" to="1/3to1/2" departLane="best" departSpeed="max" departPos="random_free"/>
    <trip id="16" depart="16.00" from="10/5to9/5" to="1/2to1/1" departLane="best" departSpeed="max" departPos="random_free"/>
    <trip id="17" depart="17.00" from="1/2to1/3" to="6/1to6/2" departLane="best" departSpeed="max" departPos="random_free"/>
    <trip id="18" depart="18.00" from="7/5to8/5" to="1/1to0/1" departLane="best" departSpeed="max" departPos="random_free"/>
    <trip id="19" depart="19.00" from="1/9to1/8" to="1/6to1/5" departLane="best" departSpeed="max" departPos="random_free"/>
    <trip id="20" depart="20.00" from="4/2to4/1" to="1/6to1/5" departLane="best" departSpeed="max" departPos="random_free"/>
    <trip id="21" depart="21.00" from="5/5to5/4" to="10/3to9/3" departLane="best" departSpeed="max" departPos="random_free"/>
    <trip id="22" depart="22.00" from="4/8to5/8" to="7/3to8/3" departLane="best" departSpeed="max" departPos="random_free"/>
    <trip id="23" depart="23.00" from="2/2to3/2" to="4/6to5/6" departLane="best" departSpeed="max" departPos="random_free"/>
    <trip id="24" depart="24.00" from="8/2to9/2" to="2/10to2/9" departLane="best" departSpeed="max" departPos="random_free"/>
    <trip id="25" depart="25.00" from="8/8to8/7" to="2/5to2/4" departLane="best" departSpeed="max" departPos="random_free"/>
    <trip id="26" depart="26.00" from="10/3to9/3" to="5/4to5/5" departLane="best" departSpeed="max" departPos="random_free"/>
    <trip id="27" depart="27.00" from="7/4to7/5" to="8/5to9/5" departLane="best" departSpeed="max" departPos="random_free"/>
</routes>
