<?xml version="1.0" encoding="UTF-8"?>
<!-- generated on 2018-04-06 23:36:31.491701 by $Id$
  options: -n mapgrid.net.xml -e 28 -l <doubleminus>trip-attributes=departLane="best" departSpeed="max" departPos="random_free" -o trips.trips.xml
-->
<routes xmlns:xsi="http://www.w3.org/2001/XMLSchema-instance" xsi:noNamespaceSchemaLocation="http://sumo.dlr.de/xsd/routes_file.xsd">
    <trip id="0" depart="0.00" from="10/0to9/0" to="8/9to7/9" departLane="best" departSpeed="max" departPos="random_free"/>
    <trip id="1" depart="1.00" from="10/8to10/7" to="0/3to0/4" departLane="best" departSpeed="max" departPos="random_free"/>
    <trip id="2" depart="2.00" from="7/5to6/5" to="0/10to1/10" departLane="best" departSpeed="max" departPos="random_free"/>
    <trip id="3" depart="3.00" from="0/9to0/10" to="6/8to7/8" departLane="best" departSpeed="max" departPos="random_free"/>
    <trip id="4" depart="4.00" from="1/6to1/7" to="5/3to5/4" departLane="best" departSpeed="max" departPos="random_free"/>
    <trip id="5" depart="5.00" from="3/5to2/5" to="3/7to3/8" departLane="best" departSpeed="max" departPos="random_free"/>
    <trip id="6" depart="6.00" from="0/0to0/1" to="0/6to0/5" departLane="best" departSpeed="max" departPos="random_free"/>
    <trip id="7" depart="7.00" from="8/0to9/0" to="10/10to9/10" departLane="best" departSpeed="max" departPos="random_free"/>
    <trip id="8" depart="8.00" from="2/3to2/2" to="10/9to10/10" departLane="best" departSpeed="max" departPos="random_free"/>
    <trip id="9" depart="9.00" from="2/0to3/0" to="4/4to4/3" departLane="best" departSpeed="max" departPos="random_free"/>
    <trip id="10" depart="10.00" from="1/10to2/10" to="1/9to0/9" departLane="best" departSpeed="max" departPos="random_free"/>
    <trip id="11" depart="11.00" from="3/5to2/5" to="7/10to7/9" departLane="best" departSpeed="max" departPos="random_free"/>
    <trip id="12" depart="12.00" from="1/8to1/7" to="4/6to4/7" departLane="best" departSpeed="max" departPos="random_free"/>
    <trip id="13" depart="13.00" from="10/0to10/1" to="2/2to2/3" departLane="best" departSpeed="max" departPos="random_free"/>
    <trip id="14" depart="14.00" from="6/6to6/7" to="3/5to2/5" departLane="best" departSpeed="max" departPos="random_free"/>
    <trip id="15" depart="15.00" from="10/8to10/7" to="7/3to6/3" departLane="best" departSpeed="max" departPos="random_free"/>
    <trip id="16" depart="16.00" from="2/3to1/3" to="7/8to7/9" departLane="best" departSpeed="max" departPos="random_free"/>
    <trip id="17" depart="17.00" from="4/2to4/3" to="6/0to5/0" departLane="best" departSpeed="max" departPos="random_free"/>
    <trip id="18" depart="18.00" from="7/5to6/5" to="8/6to7/6" departLane="best" departSpeed="max" departPos="random_free"/>
    <trip id="19" depart="19.00" from="5/10to6/10" to="7/1to8/1" departLane="best" departSpeed="max" departPos="random_free"/>
    <trip id="20" depart="20.00" from="4/8to5/8" to="8/9to8/10" departLane="best" departSpeed="max" departPos="random_free"/>
    <trip id="21" depart="21.00" from="5/9to5/8" to="4/9to4/8" departLane="best" departSpeed="max" departPos="random_free"/>
    <trip id="22" depart="22.00" from="8/9to7/9" to="5/4to5/5" departLane="best" departSpeed="max" departPos="random_free"/>
    <trip id="23" depart="23.00" from="0/3to0/4" to="8/5to9/5" departLane="best" departSpeed="max" departPos="random_free"/>
    <trip id="24" depart="24.00" from="4/8to3/8" to="10/4to10/3" departLane="best" departSpeed="max" departPos="random_free"/>
    <trip id="25" depart="25.00" from="2/7to3/7" to="1/7to2/7" departLane="best" departSpeed="max" departPos="random_free"/>
    <trip id="26" depart="26.00" from="2/1to1/1" to="4/3to4/2" departLane="best" departSpeed="max" departPos="random_free"/>
    <trip id="27" depart="27.00" from="7/2to8/2" to="2/9to2/8" departLane="best" departSpeed="max" departPos="random_free"/>
</routes>
