<?xml version="1.0" encoding="UTF-8"?>
<!-- generated on 2018-04-08 17:55:13.849798 by $Id$
  options: -n mapgrid.net.xml -e 28 -l <doubleminus>trip-attributes=departLane="best" departSpeed="max" departPos="random_free" -o trips.trips.xml
-->
<routes xmlns:xsi="http://www.w3.org/2001/XMLSchema-instance" xsi:noNamespaceSchemaLocation="http://sumo.dlr.de/xsd/routes_file.xsd">
    <trip id="0" depart="0.00" from="9/5to10/5" to="10/5to10/4" departLane="best" departSpeed="max" departPos="random_free"/>
    <trip id="1" depart="1.00" from="5/10to5/9" to="4/3to4/2" departLane="best" departSpeed="max" departPos="random_free"/>
    <trip id="2" depart="2.00" from="5/2to5/1" to="3/8to2/8" departLane="best" departSpeed="max" departPos="random_free"/>
    <trip id="3" depart="3.00" from="8/2to9/2" to="6/1to6/2" departLane="best" departSpeed="max" departPos="random_free"/>
    <trip id="4" depart="4.00" from="9/10to10/10" to="1/9to1/10" departLane="best" departSpeed="max" departPos="random_free"/>
    <trip id="5" depart="5.00" from="9/2to9/1" to="1/7to1/8" departLane="best" departSpeed="max" departPos="random_free"/>
    <trip id="6" depart="6.00" from="0/5to1/5" to="3/4to4/4" departLane="best" departSpeed="max" departPos="random_free"/>
    <trip id="7" depart="7.00" from="9/9to10/9" to="5/1to4/1" departLane="best" departSpeed="max" departPos="random_free"/>
    <trip id="8" depart="8.00" from="6/6to7/6" to="4/2to4/1" departLane="best" departSpeed="max" departPos="random_free"/>
    <trip id="9" depart="9.00" from="9/9to9/10" to="6/2to6/1" departLane="best" departSpeed="max" departPos="random_free"/>
    <trip id="10" depart="10.00" from="9/0to8/0" to="0/2to0/3" departLane="best" departSpeed="max" departPos="random_free"/>
    <trip id="11" depart="11.00" from="5/3to5/4" to="1/7to0/7" departLane="best" departSpeed="max" departPos="random_free"/>
    <trip id="12" depart="12.00" from="3/10to3/9" to="4/6to5/6" departLane="best" departSpeed="max" departPos="random_free"/>
    <trip id="13" depart="13.00" from="0/5to0/4" to="4/7to4/6" departLane="best" departSpeed="max" departPos="random_free"/>
    <trip id="14" depart="14.00" from="3/7to2/7" to="9/8to10/8" departLane="best" departSpeed="max" departPos="random_free"/>
    <trip id="15" depart="15.00" from="2/4to2/5" to="10/5to10/4" departLane="best" departSpeed="max" departPos="random_free"/>
    <trip id="16" depart="16.00" from="6/2to6/1" to="7/2to7/3" departLane="best" departSpeed="max" departPos="random_free"/>
    <trip id="17" depart="17.00" from="4/8to4/7" to="4/0to5/0" departLane="best" departSpeed="max" departPos="random_free"/>
    <trip id="18" depart="18.00" from="4/5to4/4" to="9/8to9/9" departLane="best" departSpeed="max" departPos="random_free"/>
    <trip id="19" depart="19.00" from="9/1to8/1" to="6/10to6/9" departLane="best" departSpeed="max" departPos="random_free"/>
    <trip id="20" depart="20.00" from="2/3to3/3" to="1/4to1/5" departLane="best" departSpeed="max" departPos="random_free"/>
    <trip id="21" depart="21.00" from="10/6to9/6" to="5/3to5/2" departLane="best" departSpeed="max" departPos="random_free"/>
    <trip id="22" depart="22.00" from="8/2to8/3" to="2/3to2/4" departLane="best" departSpeed="max" departPos="random_free"/>
    <trip id="23" depart="23.00" from="8/5to9/5" to="10/5to10/6" departLane="best" departSpeed="max" departPos="random_free"/>
    <trip id="24" depart="24.00" from="10/2to10/3" to="4/10to5/10" departLane="best" departSpeed="max" departPos="random_free"/>
    <trip id="25" depart="25.00" from="4/8to4/9" to="8/9to7/9" departLane="best" departSpeed="max" departPos="random_free"/>
    <trip id="26" depart="26.00" from="9/6to10/6" to="2/10to2/9" departLane="best" departSpeed="max" departPos="random_free"/>
    <trip id="27" depart="27.00" from="0/8to1/8" to="9/8to8/8" departLane="best" departSpeed="max" departPos="random_free"/>
</routes>
