<?xml version="1.0" encoding="UTF-8"?>

<!-- generated on Thu Apr 26 02:31:22 2018 by SUMO duarouter Version 0.32.0
<?xml version="1.0" encoding="UTF-8"?>

<configuration xmlns:xsi="http://www.w3.org/2001/XMLSchema-instance" xsi:noNamespaceSchemaLocation="http://sumo.dlr.de/xsd/duarouterConfiguration.xsd">

    <input>
        <net-file value="mapgrid.net.xml"/>
        <route-files value="trips.trips.xml"/>
    </input>

    <output>
        <output-file value="route.rou.xml"/>
        <alternatives-output value="route.rou.alt.xml"/>
    </output>

    <processing>
        <ignore-errors value="true"/>
        <repair value="true"/>
    </processing>

</configuration>
-->

<routes xmlns:xsi="http://www.w3.org/2001/XMLSchema-instance" xsi:noNamespaceSchemaLocation="http://sumo.dlr.de/xsd/routes_file.xsd">
    <vehicle id="0" depart="0.00" departLane="best" departPos="random_free" departSpeed="max">
        <route edges="6/6to7/6 7/6to6/6 6/6to5/6 5/6to4/6 4/6to4/5 4/5to4/4 4/4to4/3 4/3to4/2 4/2to4/3"/>
    </vehicle>
    <vehicle id="1" depart="1.00" departLane="best" departPos="random_free" departSpeed="max">
        <route edges="9/7to9/8 9/8to8/8 8/8to7/8 7/8to6/8 6/8to5/8 5/8to4/8 4/8to3/8 3/8to2/8 2/8to1/8 1/8to0/8 0/8to0/7 0/7to0/6 0/6to0/5 0/5to0/4 0/4to0/3 0/3to0/2"/>
    </vehicle>
    <vehicle id="2" depart="2.00" departLane="best" departPos="random_free" departSpeed="max">
        <route edges="9/9to10/9 10/9to9/9 9/9to8/9 8/9to7/9 7/9to6/9 6/9to5/9 5/9to4/9 4/9to3/9 3/9to2/9 2/9to1/9 1/9to1/8 1/8to1/7 1/7to1/6 1/6to1/5 1/5to0/5"/>
    </vehicle>
    <vehicle id="3" depart="3.00" departLane="best" departPos="random_free" departSpeed="max">
        <route edges="10/7to9/7 9/7to10/7 10/7to10/6 10/6to10/5 10/5to10/4 10/4to10/3 10/3to10/2"/>
    </vehicle>
    <vehicle id="4" depart="4.00" departLane="best" departPos="random_free" departSpeed="max">
        <route edges="0/6to0/5 0/5to0/4 0/4to0/3 0/3to0/2 0/2to0/1 0/1to1/1 1/1to2/1 2/1to3/1 3/1to4/1 4/1to4/2"/>
    </vehicle>
    <vehicle id="5" depart="5.00" departLane="best" departPos="random_free" departSpeed="max">
        <route edges="0/6to0/7 0/7to1/7 1/7to2/7 2/7to3/7 3/7to4/7 4/7to5/7 5/7to6/7 6/7to6/8"/>
    </vehicle>
    <vehicle id="6" depart="6.00" departLane="best" departPos="random_free" departSpeed="max">
        <route edges="6/7to6/8 6/8to7/8 7/8to8/8 8/8to9/8 9/8to10/8 10/8to10/7 10/7to10/6 10/6to10/5 10/5to10/4 10/4to10/3 10/3to10/2"/>
    </vehicle>
    <vehicle id="7" depart="7.00" departLane="best" departPos="random_free" departSpeed="max">
        <route edges="9/1to10/1 10/1to9/1 9/1to8/1 8/1to8/2 8/2to8/3 8/3to8/4 8/4to8/5 8/5to8/6 8/6to8/7 8/7to8/8 8/8to8/9 8/9to8/10"/>
    </vehicle>
    <vehicle id="8" depart="8.00" departLane="best" departPos="random_free" departSpeed="max">
        <route edges="5/6to4/6 4/6to3/6 3/6to3/7 3/7to3/8"/>
    </vehicle>
    <vehicle id="9" depart="9.00" departLane="best" departPos="random_free" departSpeed="max">
        <route edges="4/8to4/9 4/9to3/9 3/9to2/9 2/9to2/8 2/8to2/7 2/7to2/6 2/6to2/5 2/5to2/4 2/4to2/3 2/3to1/3"/>
    </vehicle>
    <vehicle id="10" depart="10.00" departLane="best" departPos="random_free" departSpeed="max">
        <route edges="0/8to0/9 0/9to1/9 1/9to2/9 2/9to3/9 3/9to4/9 4/9to5/9 5/9to6/9 6/9to7/9 7/9to8/9 8/9to9/9 9/9to10/9 10/9to10/10 10/10to9/10"/>
    </vehicle>
    <vehicle id="11" depart="11.00" departLane="best" departPos="random_free" departSpeed="max">
        <route edges="6/5to5/5 5/5to4/5 4/5to3/5 3/5to2/5 2/5to1/5 1/5to1/6 1/6to1/7 1/7to1/8 1/8to1/9 1/9to2/9"/>
    </vehicle>
    <vehicle id="12" depart="12.00" departLane="best" departPos="random_free" departSpeed="max">
        <route edges="1/7to1/8 1/8to1/7 1/7to1/6 1/6to2/6 2/6to3/6 3/6to4/6 4/6to4/7"/>
    </vehicle>
    <vehicle id="13" depart="13.00" departLane="best" departPos="random_free" departSpeed="max">
        <route edges="7/8to6/8 6/8to6/7 6/7to6/6 6/6to6/5 6/5to6/4 6/4to7/4"/>
    </vehicle>
    <vehicle id="14" depart="14.00" departLane="best" departPos="random_free" departSpeed="max">
        <route edges="9/1to9/0 9/0to8/0 8/0to7/0 7/0to6/0 6/0to5/0 5/0to4/0 4/0to4/1 4/1to4/2 4/2to4/3 4/3to4/4 4/4to4/5 4/5to4/6 4/6to4/7 4/7to5/7"/>
    </vehicle>
    <vehicle id="15" depart="15.00" departLane="best" departPos="random_free" departSpeed="max">
        <route edges="0/2to1/2 1/2to1/3 1/3to1/4 1/4to1/5 1/5to1/6 1/6to1/7 1/7to2/7 2/7to3/7 3/7to4/7 4/7to5/7 5/7to6/7 6/7to6/6"/>
    </vehicle>
    <vehicle id="16" depart="16.00" departLane="best" departPos="random_free" departSpeed="max">
        <route edges="5/6to4/6 4/6to5/6 5/6to6/6 6/6to7/6 7/6to8/6 8/6to9/6 9/6to10/6 10/6to10/7 10/7to10/8 10/8to10/9 10/9to10/10 10/10to10/9"/>
    </vehicle>
    <vehicle id="17" depart="17.00" departLane="best" departPos="random_free" departSpeed="max">
        <route edges="0/9to0/10 0/10to0/9 0/9to1/9 1/9to2/9 2/9to3/9 3/9to4/9 4/9to5/9 5/9to6/9 6/9to7/9 7/9to8/9 8/9to9/9 9/9to10/9 10/9to10/8 10/8to10/7 10/7to10/6 10/6to10/5 10/5to10/4 10/4to10/3 10/3to10/4"/>
    </vehicle>
    <vehicle id="18" depart="18.00" departLane="best" departPos="random_free" departSpeed="max">
        <route edges="8/3to7/3 7/3to8/3 8/3to9/3 9/3to10/3 10/3to10/4 10/4to9/4"/>
    </vehicle>
    <vehicle id="19" depart="19.00" departLane="best" departPos="random_free" departSpeed="max">
        <route edges="5/0to4/0 4/0to4/1 4/1to4/2 4/2to4/3 4/3to4/4 4/4to4/5 4/5to5/5 5/5to6/5 6/5to7/5"/>
    </vehicle>
    <vehicle id="20" depart="20.00" departLane="best" departPos="random_free" departSpeed="max">
        <route edges="9/5to8/5 8/5to7/5 7/5to6/5 6/5to5/5 5/5to4/5 4/5to4/6 4/6to4/7 4/7to4/8 4/8to4/7"/>
    </vehicle>
    <vehicle id="21" depart="21.00" departLane="best" departPos="random_free" departSpeed="max">
        <route edges="6/4to6/5 6/5to6/6 6/6to6/7 6/7to6/8 6/8to7/8 7/8to7/7"/>
    </vehicle>
    <vehicle id="22" depart="22.00" departLane="best" departPos="random_free" departSpeed="max">
        <route edges="9/8to8/8 8/8to7/8 7/8to6/8 6/8to5/8 5/8to4/8 4/8to3/8 3/8to3/9 3/9to3/8"/>
    </vehicle>
    <vehicle id="23" depart="23.00" departLane="best" departPos="random_free" departSpeed="max">
        <route edges="2/5to1/5 1/5to0/5 0/5to0/4 0/4to0/3 0/3to0/2 0/2to0/1 0/1to0/2"/>
    </vehicle>
    <vehicle id="24" depart="24.00" departLane="best" departPos="random_free" departSpeed="max">
        <route edges="2/5to2/4 2/4to2/5 2/5to2/6 2/6to2/7 2/7to3/7 3/7to4/7 4/7to5/7 5/7to6/7 6/7to7/7 7/7to8/7 8/7to9/7 9/7to9/8"/>
    </vehicle>
    <vehicle id="25" depart="25.00" departLane="best" departPos="random_free" departSpeed="max">
        <route edges="8/7to7/7 7/7to6/7 6/7to5/7 5/7to4/7 4/7to3/7 3/7to3/6 3/6to3/5 3/5to3/4 3/4to3/3 3/3to3/2 3/2to3/1 3/1to3/0"/>
    </vehicle>
    <vehicle id="26" depart="26.00" departLane="best" departPos="random_free" departSpeed="max">
        <route edges="10/5to10/6 10/6to9/6 9/6to8/6 8/6to7/6 7/6to7/5 7/5to7/4 7/4to7/5"/>
    </vehicle>
    <vehicle id="27" depart="27.00" departLane="best" departPos="random_free" departSpeed="max">
        <route edges="3/2to3/1 3/1to3/2 3/2to3/3 3/3to3/4 3/4to3/5 3/5to3/6 3/6to3/7 3/7to3/8 3/8to3/9 3/9to4/9 4/9to5/9 5/9to6/9 6/9to7/9 7/9to6/9"/>
    </vehicle>
</routes>
