<?xml version="1.0" encoding="UTF-8"?>
<!-- generated on 2018-05-03 18:08:58.284762 by $Id$
  options: -n mapgrid.net.xml -e 28 -l <doubleminus>trip-attributes=departLane="best" departSpeed="max" departPos="random_free" -o trips.trips.xml
-->
<routes xmlns:xsi="http://www.w3.org/2001/XMLSchema-instance" xsi:noNamespaceSchemaLocation="http://sumo.dlr.de/xsd/routes_file.xsd">
    <trip id="0" depart="0.00" from="303948430" to="-455032297" departLane="best" departSpeed="max" departPos="random_free"/>
    <trip id="1" depart="1.00" from="353154181" to="307395967#1" departLane="best" departSpeed="max" departPos="random_free"/>
    <trip id="2" depart="2.00" from="156261312#1" to="-156261228" departLane="best" departSpeed="max" departPos="random_free"/>
    <trip id="3" depart="3.00" from="-422082701#2" to="422082701#1" departLane="best" departSpeed="max" departPos="random_free"/>
    <trip id="4" depart="4.00" from="156261502#1" to="-303948430" departLane="best" departSpeed="max" departPos="random_free"/>
    <trip id="5" depart="5.00" from="307395967#1" to="156261168" departLane="best" departSpeed="max" departPos="random_free"/>
    <trip id="6" depart="6.00" from="307395967#1" to="349836653" departLane="best" departSpeed="max" departPos="random_free"/>
    <trip id="7" depart="7.00" from="-156261502#4" to="156261312#1" departLane="best" departSpeed="max" departPos="random_free"/>
    <trip id="8" depart="8.00" from="-367619846#2" to="-353154181" departLane="best" departSpeed="max" departPos="random_free"/>
    <trip id="9" depart="9.00" from="156261613#2" to="-156261445" departLane="best" departSpeed="max" departPos="random_free"/>
    <trip id="10" depart="10.00" from="286011720#0" to="-317197954#2" departLane="best" departSpeed="max" departPos="random_free"/>
    <trip id="11" depart="11.00" from="327728882#4" to="-156261356#3" departLane="best" departSpeed="max" departPos="random_free"/>
    <trip id="12" depart="12.00" from="447615377" to="156261356#3" departLane="best" departSpeed="max" departPos="random_free"/>
    <trip id="13" depart="13.00" from="156261351#0" to="450525270#0" departLane="best" departSpeed="max" departPos="random_free"/>
    <trip id="14" depart="14.00" from="369538879" to="-303948410" departLane="best" departSpeed="max" departPos="random_free"/>
    <trip id="15" depart="15.00" from="-303948360" to="308511913" departLane="best" departSpeed="max" departPos="random_free"/>
    <trip id="16" depart="16.00" from="156261609" to="28356498#1" departLane="best" departSpeed="max" departPos="random_free"/>
    <trip id="17" depart="17.00" from="-28410277#4" to="284980115#1" departLane="best" departSpeed="max" departPos="random_free"/>
    <trip id="18" depart="18.00" from="156261225" to="450298092" departLane="best" departSpeed="max" departPos="random_free"/>
    <trip id="19" depart="19.00" from="-317197954#2" to="-450298097" departLane="best" departSpeed="max" departPos="random_free"/>
    <trip id="20" depart="20.00" from="-28410277#6" to="455032297" departLane="best" departSpeed="max" departPos="random_free"/>
    <trip id="21" depart="21.00" from="-422082717#0" to="156261351#1" departLane="best" departSpeed="max" departPos="random_free"/>
    <trip id="22" depart="22.00" from="156261299#1" to="367619842" departLane="best" departSpeed="max" departPos="random_free"/>
    <trip id="23" depart="23.00" from="156261190" to="-28410277#0" departLane="best" departSpeed="max" departPos="random_free"/>
    <trip id="24" depart="24.00" from="-156261488" to="-471698306#0" departLane="best" departSpeed="max" departPos="random_free"/>
    <trip id="25" depart="25.00" from="-156261263" to="361247463#1" departLane="best" departSpeed="max" departPos="random_free"/>
    <trip id="26" depart="26.00" from="-119109424" to="156261312#1" departLane="best" departSpeed="max" departPos="random_free"/>
    <trip id="27" depart="27.00" from="317197954#5" to="422082728#4" departLane="best" departSpeed="max" departPos="random_free"/>
</routes>
