<?xml version="1.0" encoding="UTF-8"?>
<!-- generated on 2018-04-26 19:39:40.743953 by $Id$
  options: -n mapgrid.net.xml -e 28 -l <doubleminus>trip-attributes=departLane="best" departSpeed="max" departPos="random_free" -o trips.trips.xml
-->
<routes xmlns:xsi="http://www.w3.org/2001/XMLSchema-instance" xsi:noNamespaceSchemaLocation="http://sumo.dlr.de/xsd/routes_file.xsd">
    <trip id="0" depart="0.00" from="3/0to4/0" to="0/0to0/1" departLane="best" departSpeed="max" departPos="random_free"/>
    <trip id="1" depart="1.00" from="1/2to2/2" to="5/6to4/6" departLane="best" departSpeed="max" departPos="random_free"/>
    <trip id="2" depart="2.00" from="8/1to8/0" to="8/4to8/5" departLane="best" departSpeed="max" departPos="random_free"/>
    <trip id="3" depart="3.00" from="2/7to1/7" to="2/9to1/9" departLane="best" departSpeed="max" departPos="random_free"/>
    <trip id="4" depart="4.00" from="2/10to1/10" to="5/7to5/8" departLane="best" departSpeed="max" departPos="random_free"/>
    <trip id="5" depart="5.00" from="3/6to3/7" to="3/10to4/10" departLane="best" departSpeed="max" departPos="random_free"/>
    <trip id="6" depart="6.00" from="1/1to2/1" to="0/7to0/6" departLane="best" departSpeed="max" departPos="random_free"/>
    <trip id="7" depart="7.00" from="3/8to3/9" to="6/2to6/1" departLane="best" departSpeed="max" departPos="random_free"/>
    <trip id="8" depart="8.00" from="5/6to6/6" to="9/2to9/1" departLane="best" departSpeed="max" departPos="random_free"/>
    <trip id="9" depart="9.00" from="7/7to6/7" to="8/5to9/5" departLane="best" departSpeed="max" departPos="random_free"/>
    <trip id="10" depart="10.00" from="3/7to3/8" to="6/9to6/10" departLane="best" departSpeed="max" departPos="random_free"/>
    <trip id="11" depart="11.00" from="8/0to7/0" to="8/5to8/6" departLane="best" departSpeed="max" departPos="random_free"/>
    <trip id="12" depart="12.00" from="6/0to5/0" to="5/2to6/2" departLane="best" departSpeed="max" departPos="random_free"/>
    <trip id="13" depart="13.00" from="0/4to1/4" to="9/5to8/5" departLane="best" departSpeed="max" departPos="random_free"/>
    <trip id="14" depart="14.00" from="4/9to5/9" to="9/2to10/2" departLane="best" departSpeed="max" departPos="random_free"/>
    <trip id="15" depart="15.00" from="6/5to6/6" to="4/5to5/5" departLane="best" departSpeed="max" departPos="random_free"/>
    <trip id="16" depart="16.00" from="3/5to3/6" to="4/8to4/9" departLane="best" departSpeed="max" departPos="random_free"/>
    <trip id="17" depart="17.00" from="2/3to2/4" to="4/4to3/4" departLane="best" departSpeed="max" departPos="random_free"/>
    <trip id="18" depart="18.00" from="10/5to10/6" to="6/10to6/9" departLane="best" departSpeed="max" departPos="random_free"/>
    <trip id="19" depart="19.00" from="3/7to3/6" to="1/4to1/5" departLane="best" departSpeed="max" departPos="random_free"/>
    <trip id="20" depart="20.00" from="0/5to0/4" to="8/8to7/8" departLane="best" departSpeed="max" departPos="random_free"/>
    <trip id="21" depart="21.00" from="4/7to5/7" to="5/3to5/4" departLane="best" departSpeed="max" departPos="random_free"/>
    <trip id="22" depart="22.00" from="10/5to9/5" to="6/8to6/9" departLane="best" departSpeed="max" departPos="random_free"/>
    <trip id="23" depart="23.00" from="1/0to2/0" to="4/5to3/5" departLane="best" departSpeed="max" departPos="random_free"/>
    <trip id="24" depart="24.00" from="2/9to2/8" to="5/8to5/7" departLane="best" departSpeed="max" departPos="random_free"/>
    <trip id="25" depart="25.00" from="3/6to3/7" to="0/3to0/2" departLane="best" departSpeed="max" departPos="random_free"/>
    <trip id="26" depart="26.00" from="1/0to0/0" to="1/9to2/9" departLane="best" departSpeed="max" departPos="random_free"/>
    <trip id="27" depart="27.00" from="8/4to8/5" to="6/3to7/3" departLane="best" departSpeed="max" departPos="random_free"/>
</routes>
