<?xml version="1.0" encoding="UTF-8"?>
<!-- generated on 2018-05-03 23:37:08.251054 by $Id$
  options: -n mapgrid.net.xml -e 28 -l <doubleminus>trip-attributes=departLane="best" departSpeed="max" departPos="random_free" -o trips.trips.xml
-->
<routes xmlns:xsi="http://www.w3.org/2001/XMLSchema-instance" xsi:noNamespaceSchemaLocation="http://sumo.dlr.de/xsd/routes_file.xsd">
    <trip id="0" depart="0.00" from="2/8to1/8" to="5/5to6/5" departLane="best" departSpeed="max" departPos="random_free"/>
    <trip id="1" depart="1.00" from="5/1to6/1" to="8/9to9/9" departLane="best" departSpeed="max" departPos="random_free"/>
    <trip id="2" depart="2.00" from="3/1to2/1" to="6/6to7/6" departLane="best" departSpeed="max" departPos="random_free"/>
    <trip id="3" depart="3.00" from="8/9to8/8" to="9/9to9/8" departLane="best" departSpeed="max" departPos="random_free"/>
    <trip id="4" depart="4.00" from="4/1to4/0" to="1/0to0/0" departLane="best" departSpeed="max" departPos="random_free"/>
    <trip id="5" depart="5.00" from="4/2to4/3" to="2/0to1/0" departLane="best" departSpeed="max" departPos="random_free"/>
    <trip id="6" depart="6.00" from="3/6to2/6" to="6/1to6/2" departLane="best" departSpeed="max" departPos="random_free"/>
    <trip id="7" depart="7.00" from="1/1to1/0" to="5/3to4/3" departLane="best" departSpeed="max" departPos="random_free"/>
    <trip id="8" depart="8.00" from="2/7to2/8" to="6/3to7/3" departLane="best" departSpeed="max" departPos="random_free"/>
    <trip id="9" depart="9.00" from="6/6to6/5" to="1/4to1/3" departLane="best" departSpeed="max" departPos="random_free"/>
    <trip id="10" depart="10.00" from="10/6to10/7" to="1/2to2/2" departLane="best" departSpeed="max" departPos="random_free"/>
    <trip id="11" depart="11.00" from="9/2to8/2" to="3/10to4/10" departLane="best" departSpeed="max" departPos="random_free"/>
    <trip id="12" depart="12.00" from="2/6to2/7" to="9/6to9/5" departLane="best" departSpeed="max" departPos="random_free"/>
    <trip id="13" depart="13.00" from="10/9to9/9" to="0/3to0/2" departLane="best" departSpeed="max" departPos="random_free"/>
    <trip id="14" depart="14.00" from="8/5to8/6" to="5/4to5/3" departLane="best" departSpeed="max" departPos="random_free"/>
    <trip id="15" depart="15.00" from="7/5to7/6" to="4/6to4/5" departLane="best" departSpeed="max" departPos="random_free"/>
    <trip id="16" depart="16.00" from="3/10to2/10" to="10/8to9/8" departLane="best" departSpeed="max" departPos="random_free"/>
    <trip id="17" depart="17.00" from="9/8to9/7" to="9/1to9/2" departLane="best" departSpeed="max" departPos="random_free"/>
    <trip id="18" depart="18.00" from="2/9to1/9" to="6/0to5/0" departLane="best" departSpeed="max" departPos="random_free"/>
    <trip id="19" depart="19.00" from="1/7to1/8" to="2/5to2/6" departLane="best" departSpeed="max" departPos="random_free"/>
    <trip id="20" depart="20.00" from="7/4to7/5" to="4/6to3/6" departLane="best" departSpeed="max" departPos="random_free"/>
    <trip id="21" depart="21.00" from="8/10to8/9" to="8/3to8/4" departLane="best" departSpeed="max" departPos="random_free"/>
    <trip id="22" depart="22.00" from="8/9to9/9" to="5/2to6/2" departLane="best" departSpeed="max" departPos="random_free"/>
    <trip id="23" depart="23.00" from="7/7to8/7" to="4/2to4/3" departLane="best" departSpeed="max" departPos="random_free"/>
    <trip id="24" depart="24.00" from="4/3to5/3" to="3/6to3/7" departLane="best" departSpeed="max" departPos="random_free"/>
    <trip id="25" depart="25.00" from="2/3to2/2" to="8/4to8/5" departLane="best" departSpeed="max" departPos="random_free"/>
    <trip id="26" depart="26.00" from="5/6to6/6" to="4/8to4/9" departLane="best" departSpeed="max" departPos="random_free"/>
    <trip id="27" depart="27.00" from="2/3to3/3" to="7/2to7/3" departLane="best" departSpeed="max" departPos="random_free"/>
</routes>
