<?xml version="1.0" encoding="UTF-8"?>
<!-- generated on 2018-04-28 23:36:30.581451 by $Id$
  options: -n mapgrid.net.xml -e 48 -l <doubleminus>trip-attributes=departLane="best" departSpeed="max" departPos="random_free" color="1,0,0" -o trips.trips.xml
-->
<routes xmlns:xsi="http://www.w3.org/2001/XMLSchema-instance" xsi:noNamespaceSchemaLocation="http://sumo.dlr.de/xsd/routes_file.xsd">
    <trip id="0" depart="0.00" from="4/1to4/0" to="7/4to7/3" departLane="best" departSpeed="max" departPos="random_free" color="1,0,0"/>
    <trip id="1" depart="1.00" from="6/6to6/5" to="6/5to6/6" departLane="best" departSpeed="max" departPos="random_free" color="1,0,0"/>
    <trip id="2" depart="2.00" from="9/6to9/7" to="9/4to8/4" departLane="best" departSpeed="max" departPos="random_free" color="1,0,0"/>
    <trip id="3" depart="3.00" from="2/6to3/6" to="1/2to0/2" departLane="best" departSpeed="max" departPos="random_free" color="1,0,0"/>
    <trip id="4" depart="4.00" from="6/4to7/4" to="5/5to5/6" departLane="best" departSpeed="max" departPos="random_free" color="1,0,0"/>
    <trip id="5" depart="5.00" from="5/1to5/2" to="4/4to5/4" departLane="best" departSpeed="max" departPos="random_free" color="1,0,0"/>
    <trip id="6" depart="6.00" from="4/5to4/4" to="5/8to5/7" departLane="best" departSpeed="max" departPos="random_free" color="1,0,0"/>
    <trip id="7" depart="7.00" from="1/7to2/7" to="5/3to5/4" departLane="best" departSpeed="max" departPos="random_free" color="1,0,0"/>
    <trip id="8" depart="8.00" from="4/4to4/5" to="1/1to0/1" departLane="best" departSpeed="max" departPos="random_free" color="1,0,0"/>
    <trip id="9" depart="9.00" from="0/10to0/9" to="7/7to7/6" departLane="best" departSpeed="max" departPos="random_free" color="1,0,0"/>
    <trip id="10" depart="10.00" from="2/3to1/3" to="7/4to6/4" departLane="best" departSpeed="max" departPos="random_free" color="1,0,0"/>
    <trip id="11" depart="11.00" from="4/5to5/5" to="5/2to5/1" departLane="best" departSpeed="max" departPos="random_free" color="1,0,0"/>
    <trip id="12" depart="12.00" from="3/9to2/9" to="1/3to0/3" departLane="best" departSpeed="max" departPos="random_free" color="1,0,0"/>
    <trip id="13" depart="13.00" from="2/3to3/3" to="7/1to7/0" departLane="best" departSpeed="max" departPos="random_free" color="1,0,0"/>
    <trip id="14" depart="14.00" from="4/8to4/7" to="3/7to3/6" departLane="best" departSpeed="max" departPos="random_free" color="1,0,0"/>
    <trip id="15" depart="15.00" from="7/5to7/4" to="5/6to6/6" departLane="best" departSpeed="max" departPos="random_free" color="1,0,0"/>
    <trip id="16" depart="16.00" from="0/9to0/8" to="4/10to4/9" departLane="best" departSpeed="max" departPos="random_free" color="1,0,0"/>
    <trip id="17" depart="17.00" from="7/8to7/9" to="1/3to1/4" departLane="best" departSpeed="max" departPos="random_free" color="1,0,0"/>
    <trip id="18" depart="18.00" from="2/7to2/8" to="3/2to3/3" departLane="best" departSpeed="max" departPos="random_free" color="1,0,0"/>
    <trip id="19" depart="19.00" from="8/10to8/9" to="3/9to3/10" departLane="best" departSpeed="max" departPos="random_free" color="1,0,0"/>
    <trip id="20" depart="20.00" from="6/7to5/7" to="2/1to3/1" departLane="best" departSpeed="max" departPos="random_free" color="1,0,0"/>
    <trip id="21" depart="21.00" from="6/10to6/9" to="9/6to8/6" departLane="best" departSpeed="max" departPos="random_free" color="1,0,0"/>
    <trip id="22" depart="22.00" from="3/8to2/8" to="7/4to7/5" departLane="best" departSpeed="max" departPos="random_free" color="1,0,0"/>
    <trip id="23" depart="23.00" from="5/6to6/6" to="2/6to1/6" departLane="best" departSpeed="max" departPos="random_free" color="1,0,0"/>
    <trip id="24" depart="24.00" from="9/9to8/9" to="7/7to6/7" departLane="best" departSpeed="max" departPos="random_free" color="1,0,0"/>
    <trip id="25" depart="25.00" from="7/0to7/1" to="4/9to3/9" departLane="best" departSpeed="max" departPos="random_free" color="1,0,0"/>
    <trip id="26" depart="26.00" from="0/10to0/9" to="9/4to9/3" departLane="best" departSpeed="max" departPos="random_free" color="1,0,0"/>
    <trip id="27" depart="27.00" from="6/1to7/1" to="4/7to5/7" departLane="best" departSpeed="max" departPos="random_free" color="1,0,0"/>
    <trip id="28" depart="28.00" from="2/9to2/10" to="2/8to2/9" departLane="best" departSpeed="max" departPos="random_free" color="1,0,0"/>
    <trip id="29" depart="29.00" from="3/5to2/5" to="1/10to1/9" departLane="best" departSpeed="max" departPos="random_free" color="1,0,0"/>
    <trip id="30" depart="30.00" from="4/0to5/0" to="2/8to1/8" departLane="best" departSpeed="max" departPos="random_free" color="1,0,0"/>
    <trip id="31" depart="31.00" from="8/5to8/6" to="9/1to10/1" departLane="best" departSpeed="max" departPos="random_free" color="1,0,0"/>
    <trip id="32" depart="32.00" from="6/8to5/8" to="1/8to1/7" departLane="best" departSpeed="max" departPos="random_free" color="1,0,0"/>
    <trip id="33" depart="33.00" from="5/9to5/10" to="3/2to2/2" departLane="best" departSpeed="max" departPos="random_free" color="1,0,0"/>
    <trip id="34" depart="34.00" from="2/0to2/1" to="2/6to2/5" departLane="best" departSpeed="max" departPos="random_free" color="1,0,0"/>
    <trip id="35" depart="35.00" from="7/4to7/5" to="8/4to7/4" departLane="best" departSpeed="max" departPos="random_free" color="1,0,0"/>
    <trip id="36" depart="36.00" from="3/2to4/2" to="1/5to1/4" departLane="best" departSpeed="max" departPos="random_free" color="1,0,0"/>
    <trip id="37" depart="37.00" from="6/6to7/6" to="8/9to9/9" departLane="best" departSpeed="max" departPos="random_free" color="1,0,0"/>
    <trip id="38" depart="38.00" from="4/7to4/6" to="3/6to3/5" departLane="best" departSpeed="max" departPos="random_free" color="1,0,0"/>
    <trip id="39" depart="39.00" from="4/1to4/0" to="4/8to5/8" departLane="best" departSpeed="max" departPos="random_free" color="1,0,0"/>
    <trip id="40" depart="40.00" from="2/0to3/0" to="8/9to8/8" departLane="best" departSpeed="max" departPos="random_free" color="1,0,0"/>
    <trip id="41" depart="41.00" from="10/5to9/5" to="1/7to1/8" departLane="best" departSpeed="max" departPos="random_free" color="1,0,0"/>
    <trip id="42" depart="42.00" from="9/4to8/4" to="1/9to2/9" departLane="best" departSpeed="max" departPos="random_free" color="1,0,0"/>
    <trip id="43" depart="43.00" from="5/9to5/8" to="3/6to3/7" departLane="best" departSpeed="max" departPos="random_free" color="1,0,0"/>
    <trip id="44" depart="44.00" from="9/0to10/0" to="2/5to2/6" departLane="best" departSpeed="max" departPos="random_free" color="1,0,0"/>
    <trip id="45" depart="45.00" from="2/8to1/8" to="2/10to3/10" departLane="best" departSpeed="max" departPos="random_free" color="1,0,0"/>
    <trip id="46" depart="46.00" from="3/4to4/4" to="6/6to5/6" departLane="best" departSpeed="max" departPos="random_free" color="1,0,0"/>
    <trip id="47" depart="47.00" from="1/5to1/6" to="4/5to4/4" departLane="best" departSpeed="max" departPos="random_free" color="1,0,0"/>
</routes>
