<?xml version="1.0" encoding="UTF-8"?>
<!-- generated on 2018-04-08 17:03:51.157475 by $Id$
  options: -n mapgrid.net.xml -e 28 -l <doubleminus>trip-attributes=departLane="best" departSpeed="max" departPos="random_free" -o trips.trips.xml
-->
<routes xmlns:xsi="http://www.w3.org/2001/XMLSchema-instance" xsi:noNamespaceSchemaLocation="http://sumo.dlr.de/xsd/routes_file.xsd">
    <trip id="0" depart="0.00" from="9/1to9/2" to="8/3to7/3" departLane="best" departSpeed="max" departPos="random_free"/>
    <trip id="1" depart="1.00" from="5/6to5/5" to="6/2to7/2" departLane="best" departSpeed="max" departPos="random_free"/>
    <trip id="2" depart="2.00" from="5/0to5/1" to="0/0to0/1" departLane="best" departSpeed="max" departPos="random_free"/>
    <trip id="3" depart="3.00" from="1/2to1/3" to="7/7to6/7" departLane="best" departSpeed="max" departPos="random_free"/>
    <trip id="4" depart="4.00" from="1/9to1/8" to="4/7to5/7" departLane="best" departSpeed="max" departPos="random_free"/>
    <trip id="5" depart="5.00" from="5/5to5/6" to="7/1to7/2" departLane="best" departSpeed="max" departPos="random_free"/>
    <trip id="6" depart="6.00" from="2/9to3/9" to="0/5to0/6" departLane="best" departSpeed="max" departPos="random_free"/>
    <trip id="7" depart="7.00" from="10/2to10/3" to="4/7to4/6" departLane="best" departSpeed="max" departPos="random_free"/>
    <trip id="8" depart="8.00" from="1/3to2/3" to="3/0to2/0" departLane="best" departSpeed="max" departPos="random_free"/>
    <trip id="9" depart="9.00" from="8/5to8/4" to="1/8to1/9" departLane="best" departSpeed="max" departPos="random_free"/>
    <trip id="10" depart="10.00" from="3/1to4/1" to="5/10to6/10" departLane="best" departSpeed="max" departPos="random_free"/>
    <trip id="11" depart="11.00" from="6/10to7/10" to="1/2to1/3" departLane="best" departSpeed="max" departPos="random_free"/>
    <trip id="12" depart="12.00" from="1/2to1/3" to="2/5to1/5" departLane="best" departSpeed="max" departPos="random_free"/>
    <trip id="13" depart="13.00" from="6/1to7/1" to="1/1to2/1" departLane="best" departSpeed="max" departPos="random_free"/>
    <trip id="14" depart="14.00" from="5/0to6/0" to="1/2to0/2" departLane="best" departSpeed="max" departPos="random_free"/>
    <trip id="15" depart="15.00" from="0/2to0/3" to="3/8to3/7" departLane="best" departSpeed="max" departPos="random_free"/>
    <trip id="16" depart="16.00" from="1/10to2/10" to="3/10to2/10" departLane="best" departSpeed="max" departPos="random_free"/>
    <trip id="17" depart="17.00" from="2/9to2/8" to="1/3to1/2" departLane="best" departSpeed="max" departPos="random_free"/>
    <trip id="18" depart="18.00" from="0/3to0/2" to="5/8to6/8" departLane="best" departSpeed="max" departPos="random_free"/>
    <trip id="19" depart="19.00" from="6/1to6/2" to="10/4to10/5" departLane="best" departSpeed="max" departPos="random_free"/>
    <trip id="20" depart="20.00" from="0/7to1/7" to="9/4to8/4" departLane="best" departSpeed="max" departPos="random_free"/>
    <trip id="21" depart="21.00" from="10/9to9/9" to="2/9to3/9" departLane="best" departSpeed="max" departPos="random_free"/>
    <trip id="22" depart="22.00" from="10/4to9/4" to="10/1to9/1" departLane="best" departSpeed="max" departPos="random_free"/>
    <trip id="23" depart="23.00" from="3/4to4/4" to="8/10to9/10" departLane="best" departSpeed="max" departPos="random_free"/>
    <trip id="24" depart="24.00" from="9/5to9/6" to="7/6to7/7" departLane="best" departSpeed="max" departPos="random_free"/>
    <trip id="25" depart="25.00" from="4/3to4/4" to="1/2to2/2" departLane="best" departSpeed="max" departPos="random_free"/>
    <trip id="26" depart="26.00" from="2/3to3/3" to="9/9to9/8" departLane="best" departSpeed="max" departPos="random_free"/>
    <trip id="27" depart="27.00" from="3/3to4/3" to="9/1to9/2" departLane="best" departSpeed="max" departPos="random_free"/>
</routes>
