<?xml version="1.0" encoding="UTF-8"?>
<!-- generated on 2018-05-03 22:45:39.533896 by $Id$
  options: -n mapgrid.net.xml -e 28 -l <doubleminus>trip-attributes=departLane="best" departSpeed="max" departPos="random_free" -o trips.trips.xml
-->
<routes xmlns:xsi="http://www.w3.org/2001/XMLSchema-instance" xsi:noNamespaceSchemaLocation="http://sumo.dlr.de/xsd/routes_file.xsd">
    <trip id="0" depart="0.00" from="7/3to8/3" to="9/9to9/8" departLane="best" departSpeed="max" departPos="random_free"/>
    <trip id="1" depart="1.00" from="1/3to0/3" to="8/3to8/4" departLane="best" departSpeed="max" departPos="random_free"/>
    <trip id="2" depart="2.00" from="4/7to5/7" to="9/8to10/8" departLane="best" departSpeed="max" departPos="random_free"/>
    <trip id="3" depart="3.00" from="1/7to1/8" to="9/3to9/4" departLane="best" departSpeed="max" departPos="random_free"/>
    <trip id="4" depart="4.00" from="8/3to7/3" to="10/3to10/2" departLane="best" departSpeed="max" departPos="random_free"/>
    <trip id="5" depart="5.00" from="0/1to0/2" to="1/1to1/0" departLane="best" departSpeed="max" departPos="random_free"/>
    <trip id="6" depart="6.00" from="0/9to1/9" to="9/8to8/8" departLane="best" departSpeed="max" departPos="random_free"/>
    <trip id="7" depart="7.00" from="10/6to10/7" to="8/8to9/8" departLane="best" departSpeed="max" departPos="random_free"/>
    <trip id="8" depart="8.00" from="0/1to0/0" to="4/4to5/4" departLane="best" departSpeed="max" departPos="random_free"/>
    <trip id="9" depart="9.00" from="10/2to9/2" to="3/3to2/3" departLane="best" departSpeed="max" departPos="random_free"/>
    <trip id="10" depart="10.00" from="6/1to5/1" to="9/5to9/4" departLane="best" departSpeed="max" departPos="random_free"/>
    <trip id="11" depart="11.00" from="8/1to9/1" to="9/3to9/2" departLane="best" departSpeed="max" departPos="random_free"/>
    <trip id="12" depart="12.00" from="7/5to8/5" to="7/5to8/5" departLane="best" departSpeed="max" departPos="random_free"/>
    <trip id="13" depart="13.00" from="6/3to7/3" to="10/9to9/9" departLane="best" departSpeed="max" departPos="random_free"/>
    <trip id="14" depart="14.00" from="8/9to8/10" to="8/0to8/1" departLane="best" departSpeed="max" departPos="random_free"/>
    <trip id="15" depart="15.00" from="3/3to2/3" to="9/7to9/6" departLane="best" departSpeed="max" departPos="random_free"/>
    <trip id="16" depart="16.00" from="3/7to4/7" to="3/4to3/3" departLane="best" departSpeed="max" departPos="random_free"/>
    <trip id="17" depart="17.00" from="10/3to10/2" to="7/2to8/2" departLane="best" departSpeed="max" departPos="random_free"/>
    <trip id="18" depart="18.00" from="4/5to4/6" to="3/2to3/3" departLane="best" departSpeed="max" departPos="random_free"/>
    <trip id="19" depart="19.00" from="1/0to2/0" to="0/5to0/4" departLane="best" departSpeed="max" departPos="random_free"/>
    <trip id="20" depart="20.00" from="7/2to6/2" to="3/0to3/1" departLane="best" departSpeed="max" departPos="random_free"/>
    <trip id="21" depart="21.00" from="5/10to6/10" to="10/8to10/9" departLane="best" departSpeed="max" departPos="random_free"/>
    <trip id="22" depart="22.00" from="7/3to6/3" to="2/0to2/1" departLane="best" departSpeed="max" departPos="random_free"/>
    <trip id="23" depart="23.00" from="4/6to3/6" to="5/3to5/4" departLane="best" departSpeed="max" departPos="random_free"/>
    <trip id="24" depart="24.00" from="8/9to8/10" to="0/5to1/5" departLane="best" departSpeed="max" departPos="random_free"/>
    <trip id="25" depart="25.00" from="2/5to1/5" to="8/0to8/1" departLane="best" departSpeed="max" departPos="random_free"/>
    <trip id="26" depart="26.00" from="0/1to0/2" to="0/7to1/7" departLane="best" departSpeed="max" departPos="random_free"/>
    <trip id="27" depart="27.00" from="1/3to2/3" to="9/4to9/5" departLane="best" departSpeed="max" departPos="random_free"/>
</routes>
