<?xml version="1.0" encoding="UTF-8"?>
<!-- generated on 2018-04-08 17:12:26.060249 by $Id$
  options: -n mapgrid.net.xml -e 28 -l <doubleminus>trip-attributes=departLane="best" departSpeed="max" departPos="random_free" -o trips.trips.xml
-->
<routes xmlns:xsi="http://www.w3.org/2001/XMLSchema-instance" xsi:noNamespaceSchemaLocation="http://sumo.dlr.de/xsd/routes_file.xsd">
    <trip id="0" depart="0.00" from="7/9to7/8" to="6/10to5/10" departLane="best" departSpeed="max" departPos="random_free"/>
    <trip id="1" depart="1.00" from="9/3to8/3" to="1/1to1/2" departLane="best" departSpeed="max" departPos="random_free"/>
    <trip id="2" depart="2.00" from="2/4to2/3" to="9/5to9/6" departLane="best" departSpeed="max" departPos="random_free"/>
    <trip id="3" depart="3.00" from="5/4to5/3" to="7/3to8/3" departLane="best" departSpeed="max" departPos="random_free"/>
    <trip id="4" depart="4.00" from="3/3to4/3" to="9/3to8/3" departLane="best" departSpeed="max" departPos="random_free"/>
    <trip id="5" depart="5.00" from="7/9to7/10" to="6/10to6/9" departLane="best" departSpeed="max" departPos="random_free"/>
    <trip id="6" depart="6.00" from="1/5to1/6" to="0/2to1/2" departLane="best" departSpeed="max" departPos="random_free"/>
    <trip id="7" depart="7.00" from="10/5to10/6" to="3/0to3/1" departLane="best" departSpeed="max" departPos="random_free"/>
    <trip id="8" depart="8.00" from="1/8to2/8" to="9/5to9/4" departLane="best" departSpeed="max" departPos="random_free"/>
    <trip id="9" depart="9.00" from="6/1to7/1" to="1/0to1/1" departLane="best" departSpeed="max" departPos="random_free"/>
    <trip id="10" depart="10.00" from="6/5to6/6" to="6/3to6/4" departLane="best" departSpeed="max" departPos="random_free"/>
    <trip id="11" depart="11.00" from="2/3to3/3" to="3/4to3/3" departLane="best" departSpeed="max" departPos="random_free"/>
    <trip id="12" depart="12.00" from="0/5to0/4" to="10/9to9/9" departLane="best" departSpeed="max" departPos="random_free"/>
    <trip id="13" depart="13.00" from="5/7to5/6" to="6/7to6/6" departLane="best" departSpeed="max" departPos="random_free"/>
    <trip id="14" depart="14.00" from="5/3to5/2" to="9/4to8/4" departLane="best" departSpeed="max" departPos="random_free"/>
    <trip id="15" depart="15.00" from="2/5to2/4" to="6/9to5/9" departLane="best" departSpeed="max" departPos="random_free"/>
    <trip id="16" depart="16.00" from="3/4to3/5" to="0/7to0/6" departLane="best" departSpeed="max" departPos="random_free"/>
    <trip id="17" depart="17.00" from="1/2to1/3" to="0/6to0/5" departLane="best" departSpeed="max" departPos="random_free"/>
    <trip id="18" depart="18.00" from="6/4to6/3" to="6/3to7/3" departLane="best" departSpeed="max" departPos="random_free"/>
    <trip id="19" depart="19.00" from="2/9to1/9" to="3/1to4/1" departLane="best" departSpeed="max" departPos="random_free"/>
    <trip id="20" depart="20.00" from="2/8to2/7" to="8/6to9/6" departLane="best" departSpeed="max" departPos="random_free"/>
    <trip id="21" depart="21.00" from="4/1to4/2" to="10/7to10/8" departLane="best" departSpeed="max" departPos="random_free"/>
    <trip id="22" depart="22.00" from="7/9to7/8" to="0/7to1/7" departLane="best" departSpeed="max" departPos="random_free"/>
    <trip id="23" depart="23.00" from="0/5to1/5" to="4/3to3/3" departLane="best" departSpeed="max" departPos="random_free"/>
    <trip id="24" depart="24.00" from="8/4to8/5" to="7/9to6/9" departLane="best" departSpeed="max" departPos="random_free"/>
    <trip id="25" depart="25.00" from="3/6to4/6" to="10/5to10/6" departLane="best" departSpeed="max" departPos="random_free"/>
    <trip id="26" depart="26.00" from="7/9to7/8" to="8/5to9/5" departLane="best" departSpeed="max" departPos="random_free"/>
    <trip id="27" depart="27.00" from="7/5to6/5" to="1/5to1/6" departLane="best" departSpeed="max" departPos="random_free"/>
</routes>
