<?xml version="1.0" encoding="UTF-8"?>
<!-- generated on 2018-05-04 18:52:50.265805 by $Id$
  options: -n mapgrid.net.xml -e 28 -l <doubleminus>trip-attributes=departLane="best" departSpeed="max" departPos="random_free" -o trips.trips.xml
-->
<routes xmlns:xsi="http://www.w3.org/2001/XMLSchema-instance" xsi:noNamespaceSchemaLocation="http://sumo.dlr.de/xsd/routes_file.xsd">
    <trip id="0" depart="0.00" from="1/3to1/4" to="1/10to0/10" departLane="best" departSpeed="max" departPos="random_free"/>
    <trip id="1" depart="1.00" from="10/3to10/4" to="8/6to9/6" departLane="best" departSpeed="max" departPos="random_free"/>
    <trip id="2" depart="2.00" from="8/7to7/7" to="5/2to5/3" departLane="best" departSpeed="max" departPos="random_free"/>
    <trip id="3" depart="3.00" from="7/7to6/7" to="2/1to3/1" departLane="best" departSpeed="max" departPos="random_free"/>
    <trip id="4" depart="4.00" from="6/6to7/6" to="7/8to6/8" departLane="best" departSpeed="max" departPos="random_free"/>
    <trip id="5" depart="5.00" from="3/0to4/0" to="2/2to2/3" departLane="best" departSpeed="max" departPos="random_free"/>
    <trip id="6" depart="6.00" from="1/4to0/4" to="2/4to2/3" departLane="best" departSpeed="max" departPos="random_free"/>
    <trip id="7" depart="7.00" from="5/6to5/5" to="6/10to6/9" departLane="best" departSpeed="max" departPos="random_free"/>
    <trip id="8" depart="8.00" from="3/3to3/4" to="0/0to0/1" departLane="best" departSpeed="max" departPos="random_free"/>
    <trip id="9" depart="9.00" from="10/7to10/6" to="6/3to7/3" departLane="best" departSpeed="max" departPos="random_free"/>
    <trip id="10" depart="10.00" from="2/2to2/1" to="2/7to2/6" departLane="best" departSpeed="max" departPos="random_free"/>
    <trip id="11" depart="11.00" from="0/2to0/1" to="2/4to2/3" departLane="best" departSpeed="max" departPos="random_free"/>
    <trip id="12" depart="12.00" from="1/6to1/7" to="0/3to1/3" departLane="best" departSpeed="max" departPos="random_free"/>
    <trip id="13" depart="13.00" from="3/9to3/8" to="1/0to0/0" departLane="best" departSpeed="max" departPos="random_free"/>
    <trip id="14" depart="14.00" from="5/10to5/9" to="8/5to8/6" departLane="best" departSpeed="max" departPos="random_free"/>
    <trip id="15" depart="15.00" from="7/6to7/5" to="6/6to7/6" departLane="best" departSpeed="max" departPos="random_free"/>
    <trip id="16" depart="16.00" from="1/3to1/2" to="7/1to6/1" departLane="best" departSpeed="max" departPos="random_free"/>
    <trip id="17" depart="17.00" from="6/10to6/9" to="1/2to0/2" departLane="best" departSpeed="max" departPos="random_free"/>
    <trip id="18" depart="18.00" from="9/1to8/1" to="4/10to3/10" departLane="best" departSpeed="max" departPos="random_free"/>
    <trip id="19" depart="19.00" from="4/3to4/4" to="7/6to8/6" departLane="best" departSpeed="max" departPos="random_free"/>
    <trip id="20" depart="20.00" from="4/6to4/7" to="4/2to4/3" departLane="best" departSpeed="max" departPos="random_free"/>
    <trip id="21" depart="21.00" from="6/2to7/2" to="2/9to3/9" departLane="best" departSpeed="max" departPos="random_free"/>
    <trip id="22" depart="22.00" from="4/7to5/7" to="5/1to5/0" departLane="best" departSpeed="max" departPos="random_free"/>
    <trip id="23" depart="23.00" from="3/3to2/3" to="0/6to0/5" departLane="best" departSpeed="max" departPos="random_free"/>
    <trip id="24" depart="24.00" from="1/7to2/7" to="9/5to8/5" departLane="best" departSpeed="max" departPos="random_free"/>
    <trip id="25" depart="25.00" from="7/0to6/0" to="4/0to5/0" departLane="best" departSpeed="max" departPos="random_free"/>
    <trip id="26" depart="26.00" from="9/3to10/3" to="10/3to9/3" departLane="best" departSpeed="max" departPos="random_free"/>
    <trip id="27" depart="27.00" from="9/1to10/1" to="5/8to6/8" departLane="best" departSpeed="max" departPos="random_free"/>
</routes>
