<?xml version="1.0" encoding="UTF-8"?>

<!-- generated on Mon Feb 19 01:30:05 2018 by SUMO netgenerate Version 0.32.0
<?xml version="1.0" encoding="UTF-8"?>

<configuration xmlns:xsi="http://www.w3.org/2001/XMLSchema-instance" xsi:noNamespaceSchemaLocation="http://sumo.dlr.de/xsd/netgenerateConfiguration.xsd">

    <grid_network>
        <grid value="true"/>
        <grid.x-number value="5"/>
        <grid.y-number value="3"/>
        <grid.x-length value="200"/>
        <grid.y-length value="125"/>
    </grid_network>

    <output>
        <output-file value="mapgrid.net.xml"/>
    </output>

    <tls_building>
        <tls.guess value="true"/>
    </tls_building>

    <building_defaults>
        <default.speed value="15"/>
    </building_defaults>

</configuration>
-->

<net version="0.27" xmlns:xsi="http://www.w3.org/2001/XMLSchema-instance" xsi:noNamespaceSchemaLocation="http://sumo.dlr.de/xsd/net_file.xsd">

    <location netOffset="0.00,0.00" convBoundary="0.00,0.00,800.00,250.00" origBoundary="0.00,0.00,800.00,250.00" projParameter="!"/>

    <edge id=":0/0_0" function="internal">
        <lane id=":0/0_0_0" index="0" speed="15.00" length="7.90" shape="-1.65,3.25 -1.34,1.11 -0.43,-0.43 1.11,-1.34 3.25,-1.65"/>
    </edge>
    <edge id=":0/0_1" function="internal">
        <lane id=":0/0_1_0" index="0" speed="15.00" length="2.80" shape="-1.65,3.25 -0.82,2.01 0.00,1.60 0.35,1.77"/>
    </edge>
    <edge id=":0/0_4" function="internal">
        <lane id=":0/0_4_0" index="0" speed="15.00" length="2.02" shape="0.35,1.77 0.83,2.01 1.65,3.25"/>
    </edge>
    <edge id=":0/0_2" function="internal">
        <lane id=":0/0_2_0" index="0" speed="15.00" length="2.58" shape="3.25,1.65 2.55,1.75 2.05,2.05 1.75,2.55 1.65,3.25"/>
    </edge>
    <edge id=":0/0_3" function="internal">
        <lane id=":0/0_3_0" index="0" speed="15.00" length="2.20" shape="3.25,1.65 2.01,0.83 1.69,0.19"/>
    </edge>
    <edge id=":0/0_5" function="internal">
        <lane id=":0/0_5_0" index="0" speed="15.00" length="2.62" shape="1.69,0.19 1.60,0.00 2.01,-0.82 3.25,-1.65"/>
    </edge>
    <edge id=":0/1_0" function="internal">
        <lane id=":0/1_0_0" index="0" speed="15.00" length="9.50" shape="-1.65,129.75 -1.65,120.25"/>
    </edge>
    <edge id=":0/1_1" function="internal">
        <lane id=":0/1_1_0" index="0" speed="15.00" length="5.28" shape="-1.65,129.75 -1.25,126.95 -0.05,124.95 0.05,124.89"/>
    </edge>
    <edge id=":0/1_2" function="internal">
        <lane id=":0/1_2_0" index="0" speed="15.00" length="2.41" shape="-1.65,129.75 -0.83,128.51 0.00,128.10"/>
    </edge>
    <edge id=":0/1_9" function="internal">
        <lane id=":0/1_9_0" index="0" speed="15.00" length="5.04" shape="0.05,124.89 1.95,123.75 4.75,123.35"/>
    </edge>
    <edge id=":0/1_10" function="internal">
        <lane id=":0/1_10_0" index="0" speed="15.00" length="2.41" shape="0.00,128.10 0.83,128.51 1.65,129.75"/>
    </edge>
    <edge id=":0/1_3" function="internal">
        <lane id=":0/1_3_0" index="0" speed="15.00" length="5.00" shape="4.75,126.65 3.39,126.84 2.43,127.43 1.84,128.39 1.65,129.75"/>
    </edge>
    <edge id=":0/1_4" function="internal">
        <lane id=":0/1_4_0" index="0" speed="15.00" length="10.32" shape="4.75,126.65 1.95,126.25 -0.05,125.05 -1.25,123.05 -1.65,120.25"/>
    </edge>
    <edge id=":0/1_5" function="internal">
        <lane id=":0/1_5_0" index="0" speed="15.00" length="2.69" shape="4.75,126.65 3.51,125.83 3.10,125.00 3.23,124.75"/>
    </edge>
    <edge id=":0/1_11" function="internal">
        <lane id=":0/1_11_0" index="0" speed="15.00" length="2.13" shape="3.23,124.75 3.51,124.17 4.75,123.35"/>
    </edge>
    <edge id=":0/1_6" function="internal">
        <lane id=":0/1_6_0" index="0" speed="15.00" length="5.00" shape="1.65,120.25 1.84,121.61 2.43,122.57 3.39,123.16 4.75,123.35"/>
    </edge>
    <edge id=":0/1_7" function="internal">
        <lane id=":0/1_7_0" index="0" speed="15.00" length="9.50" shape="1.65,120.25 1.65,129.75"/>
    </edge>
    <edge id=":0/1_8" function="internal">
        <lane id=":0/1_8_0" index="0" speed="15.00" length="2.41" shape="1.65,120.25 0.83,121.49 0.00,121.90"/>
    </edge>
    <edge id=":0/1_12" function="internal">
        <lane id=":0/1_12_0" index="0" speed="15.00" length="2.41" shape="0.00,121.90 -0.83,121.49 -1.65,120.25"/>
    </edge>
    <edge id=":0/2_0" function="internal">
        <lane id=":0/2_0_0" index="0" speed="15.00" length="7.90" shape="3.25,251.65 1.11,251.34 -0.43,250.43 -1.34,248.89 -1.65,246.75"/>
    </edge>
    <edge id=":0/2_1" function="internal">
        <lane id=":0/2_1_0" index="0" speed="15.00" length="2.80" shape="3.25,251.65 2.01,250.82 1.60,250.00 1.77,249.65"/>
    </edge>
    <edge id=":0/2_4" function="internal">
        <lane id=":0/2_4_0" index="0" speed="15.00" length="2.02" shape="1.77,249.65 2.01,249.18 3.25,248.35"/>
    </edge>
    <edge id=":0/2_2" function="internal">
        <lane id=":0/2_2_0" index="0" speed="15.00" length="2.58" shape="1.65,246.75 1.75,247.45 2.05,247.95 2.55,248.25 3.25,248.35"/>
    </edge>
    <edge id=":0/2_3" function="internal">
        <lane id=":0/2_3_0" index="0" speed="15.00" length="2.20" shape="1.65,246.75 0.83,247.99 0.19,248.31"/>
    </edge>
    <edge id=":0/2_5" function="internal">
        <lane id=":0/2_5_0" index="0" speed="15.00" length="2.62" shape="0.19,248.31 0.00,248.40 -0.83,247.99 -1.65,246.75"/>
    </edge>
    <edge id=":1/0_0" function="internal">
        <lane id=":1/0_0_0" index="0" speed="15.00" length="5.00" shape="198.35,4.75 198.16,3.39 197.57,2.43 196.61,1.84 195.25,1.65"/>
    </edge>
    <edge id=":1/0_1" function="internal">
        <lane id=":1/0_1_0" index="0" speed="15.00" length="10.32" shape="198.35,4.75 198.75,1.95 199.95,-0.05 201.95,-1.25 204.75,-1.65"/>
    </edge>
    <edge id=":1/0_2" function="internal">
        <lane id=":1/0_2_0" index="0" speed="15.00" length="2.69" shape="198.35,4.75 199.17,3.51 200.00,3.10 200.25,3.23"/>
    </edge>
    <edge id=":1/0_9" function="internal">
        <lane id=":1/0_9_0" index="0" speed="15.00" length="2.13" shape="200.25,3.23 200.82,3.51 201.65,4.75"/>
    </edge>
    <edge id=":1/0_3" function="internal">
        <lane id=":1/0_3_0" index="0" speed="15.00" length="5.00" shape="204.75,1.65 203.39,1.84 202.42,2.42 201.84,3.39 201.65,4.75"/>
    </edge>
    <edge id=":1/0_4" function="internal">
        <lane id=":1/0_4_0" index="0" speed="15.00" length="9.50" shape="204.75,1.65 195.25,1.65"/>
    </edge>
    <edge id=":1/0_5" function="internal">
        <lane id=":1/0_5_0" index="0" speed="15.00" length="2.41" shape="204.75,1.65 203.51,0.83 203.10,0.00"/>
    </edge>
    <edge id=":1/0_10" function="internal">
        <lane id=":1/0_10_0" index="0" speed="15.00" length="2.41" shape="203.10,0.00 203.51,-0.83 204.75,-1.65"/>
    </edge>
    <edge id=":1/0_6" function="internal">
        <lane id=":1/0_6_0" index="0" speed="15.00" length="9.50" shape="195.25,-1.65 204.75,-1.65"/>
    </edge>
    <edge id=":1/0_7" function="internal">
        <lane id=":1/0_7_0" index="0" speed="15.00" length="5.28" shape="195.25,-1.65 198.05,-1.25 200.05,-0.05 200.11,0.05"/>
    </edge>
    <edge id=":1/0_8" function="internal">
        <lane id=":1/0_8_0" index="0" speed="15.00" length="2.41" shape="195.25,-1.65 196.49,-0.83 196.90,0.00"/>
    </edge>
    <edge id=":1/0_11" function="internal">
        <lane id=":1/0_11_0" index="0" speed="15.00" length="5.04" shape="200.11,0.05 201.25,1.95 201.65,4.75"/>
    </edge>
    <edge id=":1/0_12" function="internal">
        <lane id=":1/0_12_0" index="0" speed="15.00" length="2.41" shape="196.90,0.00 196.49,0.83 195.25,1.65"/>
    </edge>
    <edge id=":1/1_0" function="internal">
        <lane id=":1/1_0_0" index="0" speed="15.00" length="5.00" shape="198.35,129.75 198.16,128.39 197.57,127.43 196.61,126.84 195.25,126.65"/>
    </edge>
    <edge id=":1/1_1" function="internal">
        <lane id=":1/1_1_0" index="0" speed="15.00" length="9.50" shape="198.35,129.75 198.35,120.25"/>
    </edge>
    <edge id=":1/1_2" function="internal">
        <lane id=":1/1_2_0" index="0" speed="15.00" length="5.28" shape="198.35,129.75 198.75,126.95 199.95,124.95 200.05,124.89"/>
    </edge>
    <edge id=":1/1_3" function="internal">
        <lane id=":1/1_3_0" index="0" speed="15.00" length="2.41" shape="198.35,129.75 199.17,128.51 200.00,128.10"/>
    </edge>
    <edge id=":1/1_16" function="internal">
        <lane id=":1/1_16_0" index="0" speed="15.00" length="5.04" shape="200.05,124.89 201.95,123.75 204.75,123.35"/>
    </edge>
    <edge id=":1/1_17" function="internal">
        <lane id=":1/1_17_0" index="0" speed="15.00" length="2.41" shape="200.00,128.10 200.82,128.51 201.65,129.75"/>
    </edge>
    <edge id=":1/1_4" function="internal">
        <lane id=":1/1_4_0" index="0" speed="15.00" length="5.00" shape="204.75,126.65 203.39,126.84 202.42,127.43 201.84,128.39 201.65,129.75"/>
    </edge>
    <edge id=":1/1_5" function="internal">
        <lane id=":1/1_5_0" index="0" speed="15.00" length="9.50" shape="204.75,126.65 195.25,126.65"/>
    </edge>
    <edge id=":1/1_6" function="internal">
        <lane id=":1/1_6_0" index="0" speed="15.00" length="5.28" shape="204.75,126.65 201.95,126.25 199.95,125.05 199.89,124.95"/>
    </edge>
    <edge id=":1/1_7" function="internal">
        <lane id=":1/1_7_0" index="0" speed="15.00" length="2.41" shape="204.75,126.65 203.51,125.83 203.10,125.00"/>
    </edge>
    <edge id=":1/1_18" function="internal">
        <lane id=":1/1_18_0" index="0" speed="15.00" length="5.04" shape="199.89,124.95 198.75,123.05 198.35,120.25"/>
    </edge>
    <edge id=":1/1_19" function="internal">
        <lane id=":1/1_19_0" index="0" speed="15.00" length="2.41" shape="203.10,125.00 203.51,124.17 204.75,123.35"/>
    </edge>
    <edge id=":1/1_8" function="internal">
        <lane id=":1/1_8_0" index="0" speed="15.00" length="5.00" shape="201.65,120.25 201.84,121.61 202.43,122.57 203.39,123.16 204.75,123.35"/>
    </edge>
    <edge id=":1/1_9" function="internal">
        <lane id=":1/1_9_0" index="0" speed="15.00" length="9.50" shape="201.65,120.25 201.65,129.75"/>
    </edge>
    <edge id=":1/1_10" function="internal">
        <lane id=":1/1_10_0" index="0" speed="15.00" length="5.28" shape="201.65,120.25 201.25,123.05 200.05,125.05 199.95,125.11"/>
    </edge>
    <edge id=":1/1_11" function="internal">
        <lane id=":1/1_11_0" index="0" speed="15.00" length="2.41" shape="201.65,120.25 200.83,121.49 200.00,121.90"/>
    </edge>
    <edge id=":1/1_20" function="internal">
        <lane id=":1/1_20_0" index="0" speed="15.00" length="5.04" shape="199.95,125.11 198.05,126.25 195.25,126.65"/>
    </edge>
    <edge id=":1/1_21" function="internal">
        <lane id=":1/1_21_0" index="0" speed="15.00" length="2.41" shape="200.00,121.90 199.18,121.49 198.35,120.25"/>
    </edge>
    <edge id=":1/1_12" function="internal">
        <lane id=":1/1_12_0" index="0" speed="15.00" length="5.00" shape="195.25,123.35 196.61,123.16 197.58,122.57 198.16,121.61 198.35,120.25"/>
    </edge>
    <edge id=":1/1_13" function="internal">
        <lane id=":1/1_13_0" index="0" speed="15.00" length="9.50" shape="195.25,123.35 204.75,123.35"/>
    </edge>
    <edge id=":1/1_14" function="internal">
        <lane id=":1/1_14_0" index="0" speed="15.00" length="5.28" shape="195.25,123.35 198.05,123.75 200.05,124.95 200.11,125.05"/>
    </edge>
    <edge id=":1/1_15" function="internal">
        <lane id=":1/1_15_0" index="0" speed="15.00" length="2.41" shape="195.25,123.35 196.49,124.17 196.90,125.00"/>
    </edge>
    <edge id=":1/1_22" function="internal">
        <lane id=":1/1_22_0" index="0" speed="15.00" length="5.04" shape="200.11,125.05 201.25,126.95 201.65,129.75"/>
    </edge>
    <edge id=":1/1_23" function="internal">
        <lane id=":1/1_23_0" index="0" speed="15.00" length="2.41" shape="196.90,125.00 196.49,125.83 195.25,126.65"/>
    </edge>
    <edge id=":1/2_0" function="internal">
        <lane id=":1/2_0_0" index="0" speed="15.00" length="9.50" shape="204.75,251.65 195.25,251.65"/>
    </edge>
    <edge id=":1/2_1" function="internal">
        <lane id=":1/2_1_0" index="0" speed="15.00" length="5.28" shape="204.75,251.65 201.95,251.25 199.95,250.05 199.89,249.95"/>
    </edge>
    <edge id=":1/2_2" function="internal">
        <lane id=":1/2_2_0" index="0" speed="15.00" length="2.41" shape="204.75,251.65 203.51,250.82 203.10,250.00"/>
    </edge>
    <edge id=":1/2_9" function="internal">
        <lane id=":1/2_9_0" index="0" speed="15.00" length="5.04" shape="199.89,249.95 198.75,248.05 198.35,245.25"/>
    </edge>
    <edge id=":1/2_10" function="internal">
        <lane id=":1/2_10_0" index="0" speed="15.00" length="2.41" shape="203.10,250.00 203.51,249.18 204.75,248.35"/>
    </edge>
    <edge id=":1/2_3" function="internal">
        <lane id=":1/2_3_0" index="0" speed="15.00" length="5.00" shape="201.65,245.25 201.84,246.61 202.43,247.58 203.39,248.16 204.75,248.35"/>
    </edge>
    <edge id=":1/2_4" function="internal">
        <lane id=":1/2_4_0" index="0" speed="15.00" length="10.32" shape="201.65,245.25 201.25,248.05 200.05,250.05 198.05,251.25 195.25,251.65"/>
    </edge>
    <edge id=":1/2_5" function="internal">
        <lane id=":1/2_5_0" index="0" speed="15.00" length="2.69" shape="201.65,245.25 200.83,246.49 200.00,246.90 199.75,246.77"/>
    </edge>
    <edge id=":1/2_11" function="internal">
        <lane id=":1/2_11_0" index="0" speed="15.00" length="2.13" shape="199.75,246.77 199.18,246.49 198.35,245.25"/>
    </edge>
    <edge id=":1/2_6" function="internal">
        <lane id=":1/2_6_0" index="0" speed="15.00" length="5.00" shape="195.25,248.35 196.61,248.16 197.58,247.57 198.16,246.61 198.35,245.25"/>
    </edge>
    <edge id=":1/2_7" function="internal">
        <lane id=":1/2_7_0" index="0" speed="15.00" length="9.50" shape="195.25,248.35 204.75,248.35"/>
    </edge>
    <edge id=":1/2_8" function="internal">
        <lane id=":1/2_8_0" index="0" speed="15.00" length="2.41" shape="195.25,248.35 196.49,249.18 196.90,250.00"/>
    </edge>
    <edge id=":1/2_12" function="internal">
        <lane id=":1/2_12_0" index="0" speed="15.00" length="2.41" shape="196.90,250.00 196.49,250.82 195.25,251.65"/>
    </edge>
    <edge id=":2/0_0" function="internal">
        <lane id=":2/0_0_0" index="0" speed="15.00" length="5.00" shape="398.35,4.75 398.16,3.39 397.58,2.43 396.61,1.84 395.25,1.65"/>
    </edge>
    <edge id=":2/0_1" function="internal">
        <lane id=":2/0_1_0" index="0" speed="15.00" length="10.32" shape="398.35,4.75 398.75,1.95 399.95,-0.05 401.95,-1.25 404.75,-1.65"/>
    </edge>
    <edge id=":2/0_2" function="internal">
        <lane id=":2/0_2_0" index="0" speed="15.00" length="2.69" shape="398.35,4.75 399.17,3.51 400.00,3.10 400.25,3.23"/>
    </edge>
    <edge id=":2/0_9" function="internal">
        <lane id=":2/0_9_0" index="0" speed="15.00" length="2.13" shape="400.25,3.23 400.82,3.51 401.65,4.75"/>
    </edge>
    <edge id=":2/0_3" function="internal">
        <lane id=":2/0_3_0" index="0" speed="15.00" length="5.00" shape="404.75,1.65 403.39,1.84 402.42,2.42 401.84,3.39 401.65,4.75"/>
    </edge>
    <edge id=":2/0_4" function="internal">
        <lane id=":2/0_4_0" index="0" speed="15.00" length="9.50" shape="404.75,1.65 395.25,1.65"/>
    </edge>
    <edge id=":2/0_5" function="internal">
        <lane id=":2/0_5_0" index="0" speed="15.00" length="2.41" shape="404.75,1.65 403.51,0.83 403.10,0.00"/>
    </edge>
    <edge id=":2/0_10" function="internal">
        <lane id=":2/0_10_0" index="0" speed="15.00" length="2.41" shape="403.10,0.00 403.51,-0.83 404.75,-1.65"/>
    </edge>
    <edge id=":2/0_6" function="internal">
        <lane id=":2/0_6_0" index="0" speed="15.00" length="9.50" shape="395.25,-1.65 404.75,-1.65"/>
    </edge>
    <edge id=":2/0_7" function="internal">
        <lane id=":2/0_7_0" index="0" speed="15.00" length="5.28" shape="395.25,-1.65 398.05,-1.25 400.05,-0.05 400.11,0.05"/>
    </edge>
    <edge id=":2/0_8" function="internal">
        <lane id=":2/0_8_0" index="0" speed="15.00" length="2.41" shape="395.25,-1.65 396.49,-0.83 396.90,0.00"/>
    </edge>
    <edge id=":2/0_11" function="internal">
        <lane id=":2/0_11_0" index="0" speed="15.00" length="5.04" shape="400.11,0.05 401.25,1.95 401.65,4.75"/>
    </edge>
    <edge id=":2/0_12" function="internal">
        <lane id=":2/0_12_0" index="0" speed="15.00" length="2.41" shape="396.90,0.00 396.49,0.83 395.25,1.65"/>
    </edge>
    <edge id=":2/1_0" function="internal">
        <lane id=":2/1_0_0" index="0" speed="15.00" length="5.00" shape="398.35,129.75 398.16,128.39 397.58,127.43 396.61,126.84 395.25,126.65"/>
    </edge>
    <edge id=":2/1_1" function="internal">
        <lane id=":2/1_1_0" index="0" speed="15.00" length="9.50" shape="398.35,129.75 398.35,120.25"/>
    </edge>
    <edge id=":2/1_2" function="internal">
        <lane id=":2/1_2_0" index="0" speed="15.00" length="5.28" shape="398.35,129.75 398.75,126.95 399.95,124.95 400.05,124.89"/>
    </edge>
    <edge id=":2/1_3" function="internal">
        <lane id=":2/1_3_0" index="0" speed="15.00" length="2.41" shape="398.35,129.75 399.17,128.51 400.00,128.10"/>
    </edge>
    <edge id=":2/1_16" function="internal">
        <lane id=":2/1_16_0" index="0" speed="15.00" length="5.04" shape="400.05,124.89 401.95,123.75 404.75,123.35"/>
    </edge>
    <edge id=":2/1_17" function="internal">
        <lane id=":2/1_17_0" index="0" speed="15.00" length="2.41" shape="400.00,128.10 400.82,128.51 401.65,129.75"/>
    </edge>
    <edge id=":2/1_4" function="internal">
        <lane id=":2/1_4_0" index="0" speed="15.00" length="5.00" shape="404.75,126.65 403.39,126.84 402.42,127.43 401.84,128.39 401.65,129.75"/>
    </edge>
    <edge id=":2/1_5" function="internal">
        <lane id=":2/1_5_0" index="0" speed="15.00" length="9.50" shape="404.75,126.65 395.25,126.65"/>
    </edge>
    <edge id=":2/1_6" function="internal">
        <lane id=":2/1_6_0" index="0" speed="15.00" length="5.28" shape="404.75,126.65 401.95,126.25 399.95,125.05 399.89,124.95"/>
    </edge>
    <edge id=":2/1_7" function="internal">
        <lane id=":2/1_7_0" index="0" speed="15.00" length="2.41" shape="404.75,126.65 403.51,125.83 403.10,125.00"/>
    </edge>
    <edge id=":2/1_18" function="internal">
        <lane id=":2/1_18_0" index="0" speed="15.00" length="5.04" shape="399.89,124.95 398.75,123.05 398.35,120.25"/>
    </edge>
    <edge id=":2/1_19" function="internal">
        <lane id=":2/1_19_0" index="0" speed="15.00" length="2.41" shape="403.10,125.00 403.51,124.17 404.75,123.35"/>
    </edge>
    <edge id=":2/1_8" function="internal">
        <lane id=":2/1_8_0" index="0" speed="15.00" length="5.00" shape="401.65,120.25 401.84,121.61 402.42,122.57 403.39,123.16 404.75,123.35"/>
    </edge>
    <edge id=":2/1_9" function="internal">
        <lane id=":2/1_9_0" index="0" speed="15.00" length="9.50" shape="401.65,120.25 401.65,129.75"/>
    </edge>
    <edge id=":2/1_10" function="internal">
        <lane id=":2/1_10_0" index="0" speed="15.00" length="5.28" shape="401.65,120.25 401.25,123.05 400.05,125.05 399.95,125.11"/>
    </edge>
    <edge id=":2/1_11" function="internal">
        <lane id=":2/1_11_0" index="0" speed="15.00" length="2.41" shape="401.65,120.25 400.83,121.49 400.00,121.90"/>
    </edge>
    <edge id=":2/1_20" function="internal">
        <lane id=":2/1_20_0" index="0" speed="15.00" length="5.04" shape="399.95,125.11 398.05,126.25 395.25,126.65"/>
    </edge>
    <edge id=":2/1_21" function="internal">
        <lane id=":2/1_21_0" index="0" speed="15.00" length="2.41" shape="400.00,121.90 399.18,121.49 398.35,120.25"/>
    </edge>
    <edge id=":2/1_12" function="internal">
        <lane id=":2/1_12_0" index="0" speed="15.00" length="5.00" shape="395.25,123.35 396.61,123.16 397.58,122.57 398.16,121.61 398.35,120.25"/>
    </edge>
    <edge id=":2/1_13" function="internal">
        <lane id=":2/1_13_0" index="0" speed="15.00" length="9.50" shape="395.25,123.35 404.75,123.35"/>
    </edge>
    <edge id=":2/1_14" function="internal">
        <lane id=":2/1_14_0" index="0" speed="15.00" length="5.28" shape="395.25,123.35 398.05,123.75 400.05,124.95 400.11,125.05"/>
    </edge>
    <edge id=":2/1_15" function="internal">
        <lane id=":2/1_15_0" index="0" speed="15.00" length="2.41" shape="395.25,123.35 396.49,124.17 396.90,125.00"/>
    </edge>
    <edge id=":2/1_22" function="internal">
        <lane id=":2/1_22_0" index="0" speed="15.00" length="5.04" shape="400.11,125.05 401.25,126.95 401.65,129.75"/>
    </edge>
    <edge id=":2/1_23" function="internal">
        <lane id=":2/1_23_0" index="0" speed="15.00" length="2.41" shape="396.90,125.00 396.49,125.83 395.25,126.65"/>
    </edge>
    <edge id=":2/2_0" function="internal">
        <lane id=":2/2_0_0" index="0" speed="15.00" length="9.50" shape="404.75,251.65 395.25,251.65"/>
    </edge>
    <edge id=":2/2_1" function="internal">
        <lane id=":2/2_1_0" index="0" speed="15.00" length="5.28" shape="404.75,251.65 401.95,251.25 399.95,250.05 399.89,249.95"/>
    </edge>
    <edge id=":2/2_2" function="internal">
        <lane id=":2/2_2_0" index="0" speed="15.00" length="2.41" shape="404.75,251.65 403.51,250.82 403.10,250.00"/>
    </edge>
    <edge id=":2/2_9" function="internal">
        <lane id=":2/2_9_0" index="0" speed="15.00" length="5.04" shape="399.89,249.95 398.75,248.05 398.35,245.25"/>
    </edge>
    <edge id=":2/2_10" function="internal">
        <lane id=":2/2_10_0" index="0" speed="15.00" length="2.41" shape="403.10,250.00 403.51,249.18 404.75,248.35"/>
    </edge>
    <edge id=":2/2_3" function="internal">
        <lane id=":2/2_3_0" index="0" speed="15.00" length="5.00" shape="401.65,245.25 401.84,246.61 402.42,247.58 403.39,248.16 404.75,248.35"/>
    </edge>
    <edge id=":2/2_4" function="internal">
        <lane id=":2/2_4_0" index="0" speed="15.00" length="10.32" shape="401.65,245.25 401.25,248.05 400.05,250.05 398.05,251.25 395.25,251.65"/>
    </edge>
    <edge id=":2/2_5" function="internal">
        <lane id=":2/2_5_0" index="0" speed="15.00" length="2.69" shape="401.65,245.25 400.83,246.49 400.00,246.90 399.75,246.77"/>
    </edge>
    <edge id=":2/2_11" function="internal">
        <lane id=":2/2_11_0" index="0" speed="15.00" length="2.13" shape="399.75,246.77 399.18,246.49 398.35,245.25"/>
    </edge>
    <edge id=":2/2_6" function="internal">
        <lane id=":2/2_6_0" index="0" speed="15.00" length="5.00" shape="395.25,248.35 396.61,248.16 397.58,247.57 398.16,246.61 398.35,245.25"/>
    </edge>
    <edge id=":2/2_7" function="internal">
        <lane id=":2/2_7_0" index="0" speed="15.00" length="9.50" shape="395.25,248.35 404.75,248.35"/>
    </edge>
    <edge id=":2/2_8" function="internal">
        <lane id=":2/2_8_0" index="0" speed="15.00" length="2.41" shape="395.25,248.35 396.49,249.18 396.90,250.00"/>
    </edge>
    <edge id=":2/2_12" function="internal">
        <lane id=":2/2_12_0" index="0" speed="15.00" length="2.41" shape="396.90,250.00 396.49,250.82 395.25,251.65"/>
    </edge>
    <edge id=":3/0_0" function="internal">
        <lane id=":3/0_0_0" index="0" speed="15.00" length="5.00" shape="598.35,4.75 598.16,3.39 597.58,2.43 596.61,1.84 595.25,1.65"/>
    </edge>
    <edge id=":3/0_1" function="internal">
        <lane id=":3/0_1_0" index="0" speed="15.00" length="10.32" shape="598.35,4.75 598.75,1.95 599.95,-0.05 601.95,-1.25 604.75,-1.65"/>
    </edge>
    <edge id=":3/0_2" function="internal">
        <lane id=":3/0_2_0" index="0" speed="15.00" length="2.69" shape="598.35,4.75 599.18,3.51 600.00,3.10 600.25,3.23"/>
    </edge>
    <edge id=":3/0_9" function="internal">
        <lane id=":3/0_9_0" index="0" speed="15.00" length="2.13" shape="600.25,3.23 600.83,3.51 601.65,4.75"/>
    </edge>
    <edge id=":3/0_3" function="internal">
        <lane id=":3/0_3_0" index="0" speed="15.00" length="5.00" shape="604.75,1.65 603.39,1.84 602.42,2.42 601.84,3.39 601.65,4.75"/>
    </edge>
    <edge id=":3/0_4" function="internal">
        <lane id=":3/0_4_0" index="0" speed="15.00" length="9.50" shape="604.75,1.65 595.25,1.65"/>
    </edge>
    <edge id=":3/0_5" function="internal">
        <lane id=":3/0_5_0" index="0" speed="15.00" length="2.41" shape="604.75,1.65 603.51,0.83 603.10,0.00"/>
    </edge>
    <edge id=":3/0_10" function="internal">
        <lane id=":3/0_10_0" index="0" speed="15.00" length="2.41" shape="603.10,0.00 603.51,-0.83 604.75,-1.65"/>
    </edge>
    <edge id=":3/0_6" function="internal">
        <lane id=":3/0_6_0" index="0" speed="15.00" length="9.50" shape="595.25,-1.65 604.75,-1.65"/>
    </edge>
    <edge id=":3/0_7" function="internal">
        <lane id=":3/0_7_0" index="0" speed="15.00" length="5.28" shape="595.25,-1.65 598.05,-1.25 600.05,-0.05 600.11,0.05"/>
    </edge>
    <edge id=":3/0_8" function="internal">
        <lane id=":3/0_8_0" index="0" speed="15.00" length="2.41" shape="595.25,-1.65 596.49,-0.83 596.90,0.00"/>
    </edge>
    <edge id=":3/0_11" function="internal">
        <lane id=":3/0_11_0" index="0" speed="15.00" length="5.04" shape="600.11,0.05 601.25,1.95 601.65,4.75"/>
    </edge>
    <edge id=":3/0_12" function="internal">
        <lane id=":3/0_12_0" index="0" speed="15.00" length="2.41" shape="596.90,0.00 596.49,0.83 595.25,1.65"/>
    </edge>
    <edge id=":3/1_0" function="internal">
        <lane id=":3/1_0_0" index="0" speed="15.00" length="5.00" shape="598.35,129.75 598.16,128.39 597.58,127.43 596.61,126.84 595.25,126.65"/>
    </edge>
    <edge id=":3/1_1" function="internal">
        <lane id=":3/1_1_0" index="0" speed="15.00" length="9.50" shape="598.35,129.75 598.35,120.25"/>
    </edge>
    <edge id=":3/1_2" function="internal">
        <lane id=":3/1_2_0" index="0" speed="15.00" length="5.28" shape="598.35,129.75 598.75,126.95 599.95,124.95 600.05,124.89"/>
    </edge>
    <edge id=":3/1_3" function="internal">
        <lane id=":3/1_3_0" index="0" speed="15.00" length="2.41" shape="598.35,129.75 599.18,128.51 600.00,128.10"/>
    </edge>
    <edge id=":3/1_16" function="internal">
        <lane id=":3/1_16_0" index="0" speed="15.00" length="5.04" shape="600.05,124.89 601.95,123.75 604.75,123.35"/>
    </edge>
    <edge id=":3/1_17" function="internal">
        <lane id=":3/1_17_0" index="0" speed="15.00" length="2.41" shape="600.00,128.10 600.83,128.51 601.65,129.75"/>
    </edge>
    <edge id=":3/1_4" function="internal">
        <lane id=":3/1_4_0" index="0" speed="15.00" length="5.00" shape="604.75,126.65 603.39,126.84 602.42,127.43 601.84,128.39 601.65,129.75"/>
    </edge>
    <edge id=":3/1_5" function="internal">
        <lane id=":3/1_5_0" index="0" speed="15.00" length="9.50" shape="604.75,126.65 595.25,126.65"/>
    </edge>
    <edge id=":3/1_6" function="internal">
        <lane id=":3/1_6_0" index="0" speed="15.00" length="5.28" shape="604.75,126.65 601.95,126.25 599.95,125.05 599.89,124.95"/>
    </edge>
    <edge id=":3/1_7" function="internal">
        <lane id=":3/1_7_0" index="0" speed="15.00" length="2.41" shape="604.75,126.65 603.51,125.83 603.10,125.00"/>
    </edge>
    <edge id=":3/1_18" function="internal">
        <lane id=":3/1_18_0" index="0" speed="15.00" length="5.04" shape="599.89,124.95 598.75,123.05 598.35,120.25"/>
    </edge>
    <edge id=":3/1_19" function="internal">
        <lane id=":3/1_19_0" index="0" speed="15.00" length="2.41" shape="603.10,125.00 603.51,124.17 604.75,123.35"/>
    </edge>
    <edge id=":3/1_8" function="internal">
        <lane id=":3/1_8_0" index="0" speed="15.00" length="5.00" shape="601.65,120.25 601.84,121.61 602.42,122.57 603.39,123.16 604.75,123.35"/>
    </edge>
    <edge id=":3/1_9" function="internal">
        <lane id=":3/1_9_0" index="0" speed="15.00" length="9.50" shape="601.65,120.25 601.65,129.75"/>
    </edge>
    <edge id=":3/1_10" function="internal">
        <lane id=":3/1_10_0" index="0" speed="15.00" length="5.28" shape="601.65,120.25 601.25,123.05 600.05,125.05 599.95,125.11"/>
    </edge>
    <edge id=":3/1_11" function="internal">
        <lane id=":3/1_11_0" index="0" speed="15.00" length="2.41" shape="601.65,120.25 600.82,121.49 600.00,121.90"/>
    </edge>
    <edge id=":3/1_20" function="internal">
        <lane id=":3/1_20_0" index="0" speed="15.00" length="5.04" shape="599.95,125.11 598.05,126.25 595.25,126.65"/>
    </edge>
    <edge id=":3/1_21" function="internal">
        <lane id=":3/1_21_0" index="0" speed="15.00" length="2.41" shape="600.00,121.90 599.17,121.49 598.35,120.25"/>
    </edge>
    <edge id=":3/1_12" function="internal">
        <lane id=":3/1_12_0" index="0" speed="15.00" length="5.00" shape="595.25,123.35 596.61,123.16 597.58,122.57 598.16,121.61 598.35,120.25"/>
    </edge>
    <edge id=":3/1_13" function="internal">
        <lane id=":3/1_13_0" index="0" speed="15.00" length="9.50" shape="595.25,123.35 604.75,123.35"/>
    </edge>
    <edge id=":3/1_14" function="internal">
        <lane id=":3/1_14_0" index="0" speed="15.00" length="5.28" shape="595.25,123.35 598.05,123.75 600.05,124.95 600.11,125.05"/>
    </edge>
    <edge id=":3/1_15" function="internal">
        <lane id=":3/1_15_0" index="0" speed="15.00" length="2.41" shape="595.25,123.35 596.49,124.17 596.90,125.00"/>
    </edge>
    <edge id=":3/1_22" function="internal">
        <lane id=":3/1_22_0" index="0" speed="15.00" length="5.04" shape="600.11,125.05 601.25,126.95 601.65,129.75"/>
    </edge>
    <edge id=":3/1_23" function="internal">
        <lane id=":3/1_23_0" index="0" speed="15.00" length="2.41" shape="596.90,125.00 596.49,125.83 595.25,126.65"/>
    </edge>
    <edge id=":3/2_0" function="internal">
        <lane id=":3/2_0_0" index="0" speed="15.00" length="9.50" shape="604.75,251.65 595.25,251.65"/>
    </edge>
    <edge id=":3/2_1" function="internal">