<?xml version="1.0" encoding="UTF-8"?>
<!-- generated on 2018-05-06 14:10:46.232618 by $Id$
  options: -n mapgrid.net.xml -e 28 -l <doubleminus>trip-attributes=departLane="best" departSpeed="max" departPos="random_free" -o trips.trips.xml
-->
<routes xmlns:xsi="http://www.w3.org/2001/XMLSchema-instance" xsi:noNamespaceSchemaLocation="http://sumo.dlr.de/xsd/routes_file.xsd">
    <trip id="0" depart="0.00" from="36054622#1" to="119109423#1" departLane="best" departSpeed="max" departPos="random_free"/>
    <trip id="1" depart="1.00" from="450298080" to="-156261502#2" departLane="best" departSpeed="max" departPos="random_free"/>
    <trip id="2" depart="2.00" from="447615377" to="156261168" departLane="best" departSpeed="max" departPos="random_free"/>
    <trip id="3" depart="3.00" from="156261312#0" to="156261495#2" departLane="best" departSpeed="max" departPos="random_free"/>
    <trip id="4" depart="4.00" from="119109423#1" to="-28410233#1" departLane="best" departSpeed="max" departPos="random_free"/>
    <trip id="5" depart="5.00" from="367613995" to="353154185" departLane="best" departSpeed="max" departPos="random_free"/>
    <trip id="6" depart="6.00" from="-450298078" to="-303948407" departLane="best" departSpeed="max" departPos="random_free"/>
    <trip id="7" depart="7.00" from="449480717#1" to="-367938218" departLane="best" departSpeed="max" departPos="random_free"/>
    <trip id="8" depart="8.00" from="28410233#1" to="-422082695" departLane="best" departSpeed="max" departPos="random_free"/>
    <trip id="9" depart="9.00" from="-471698306#1" to="307395967#1" departLane="best" departSpeed="max" departPos="random_free"/>
    <trip id="10" depart="10.00" from="303948410" to="156261310#0" departLane="best" departSpeed="max" departPos="random_free"/>
    <trip id="11" depart="11.00" from="303948407" to="-303948346#1" departLane="best" departSpeed="max" departPos="random_free"/>
    <trip id="12" depart="12.00" from="156261488" to="361247463#0" departLane="best" departSpeed="max" departPos="random_free"/>
    <trip id="13" depart="13.00" from="-353154171#0" to="369538883#1" departLane="best" departSpeed="max" departPos="random_free"/>
    <trip id="14" depart="14.00" from="303948410" to="156261523" departLane="best" departSpeed="max" departPos="random_free"/>
    <trip id="15" depart="15.00" from="156261367" to="307395967#1" departLane="best" departSpeed="max" departPos="random_free"/>
    <trip id="16" depart="16.00" from="-450298097" to="-156261488" departLane="best" departSpeed="max" departPos="random_free"/>
    <trip id="17" depart="17.00" from="303948346#0" to="-418865870#1" departLane="best" departSpeed="max" departPos="random_free"/>
    <trip id="18" depart="18.00" from="450298078" to="540603497#0" departLane="best" departSpeed="max" departPos="random_free"/>
    <trip id="19" depart="19.00" from="422082717#0" to="327728882#5" departLane="best" departSpeed="max" departPos="random_free"/>
    <trip id="20" depart="20.00" from="156261495#2" to="303948405#1" departLane="best" departSpeed="max" departPos="random_free"/>
    <trip id="21" depart="21.00" from="156261225" to="156261312#1" departLane="best" departSpeed="max" departPos="random_free"/>
    <trip id="22" depart="22.00" from="317197954#2" to="-422082701#1" departLane="best" departSpeed="max" departPos="random_free"/>
    <trip id="23" depart="23.00" from="369652618" to="303948407" departLane="best" departSpeed="max" departPos="random_free"/>
    <trip id="24" depart="24.00" from="-450298093" to="369538882#0" departLane="best" departSpeed="max" departPos="random_free"/>
    <trip id="25" depart="25.00" from="369538882#0" to="450298086" departLane="best" departSpeed="max" departPos="random_free"/>
    <trip id="26" depart="26.00" from="317197954#3" to="-422082701#1" departLane="best" departSpeed="max" departPos="random_free"/>
    <trip id="27" depart="27.00" from="-156261523" to="353154171#0" departLane="best" departSpeed="max" departPos="random_free"/>
</routes>
