<?xml version="1.0" encoding="UTF-8"?>
<!-- generated on 2018-05-03 23:44:13.710378 by $Id$
  options: -n mapgrid.net.xml -e 28 -l <doubleminus>trip-attributes=departLane="best" departSpeed="max" departPos="random_free" -o trips.trips.xml
-->
<routes xmlns:xsi="http://www.w3.org/2001/XMLSchema-instance" xsi:noNamespaceSchemaLocation="http://sumo.dlr.de/xsd/routes_file.xsd">
    <trip id="0" depart="0.00" from="8/6to7/6" to="1/1to1/0" departLane="best" departSpeed="max" departPos="random_free"/>
    <trip id="1" depart="1.00" from="2/5to1/5" to="3/2to3/1" departLane="best" departSpeed="max" departPos="random_free"/>
    <trip id="2" depart="2.00" from="9/8to8/8" to="9/9to9/10" departLane="best" departSpeed="max" departPos="random_free"/>
    <trip id="3" depart="3.00" from="8/3to7/3" to="7/4to7/3" departLane="best" departSpeed="max" departPos="random_free"/>
    <trip id="4" depart="4.00" from="6/10to6/9" to="9/6to9/7" departLane="best" departSpeed="max" departPos="random_free"/>
    <trip id="5" depart="5.00" from="1/10to1/9" to="10/7to10/6" departLane="best" departSpeed="max" departPos="random_free"/>
    <trip id="6" depart="6.00" from="10/8to10/7" to="10/8to10/9" departLane="best" departSpeed="max" departPos="random_free"/>
    <trip id="7" depart="7.00" from="3/4to4/4" to="6/1to6/0" departLane="best" departSpeed="max" departPos="random_free"/>
    <trip id="8" depart="8.00" from="3/8to4/8" to="6/3to6/4" departLane="best" departSpeed="max" departPos="random_free"/>
    <trip id="9" depart="9.00" from="6/6to5/6" to="1/3to1/4" departLane="best" departSpeed="max" departPos="random_free"/>
    <trip id="10" depart="10.00" from="8/3to8/2" to="1/10to1/9" departLane="best" departSpeed="max" departPos="random_free"/>
    <trip id="11" depart="11.00" from="4/2to4/1" to="9/3to9/4" departLane="best" departSpeed="max" departPos="random_free"/>
    <trip id="12" depart="12.00" from="5/8to6/8" to="6/6to5/6" departLane="best" departSpeed="max" departPos="random_free"/>
    <trip id="13" depart="13.00" from="1/9to1/10" to="4/8to3/8" departLane="best" departSpeed="max" departPos="random_free"/>
    <trip id="14" depart="14.00" from="1/9to1/10" to="8/7to9/7" departLane="best" departSpeed="max" departPos="random_free"/>
    <trip id="15" depart="15.00" from="6/2to5/2" to="0/7to0/8" departLane="best" departSpeed="max" departPos="random_free"/>
    <trip id="16" depart="16.00" from="5/2to5/3" to="6/6to7/6" departLane="best" departSpeed="max" departPos="random_free"/>
    <trip id="17" depart="17.00" from="1/9to0/9" to="6/6to6/5" departLane="best" departSpeed="max" departPos="random_free"/>
    <trip id="18" depart="18.00" from="5/9to5/8" to="1/7to2/7" departLane="best" departSpeed="max" departPos="random_free"/>
    <trip id="19" depart="19.00" from="3/0to2/0" to="6/2to6/3" departLane="best" departSpeed="max" departPos="random_free"/>
    <trip id="20" depart="20.00" from="1/3to0/3" to="10/3to9/3" departLane="best" departSpeed="max" departPos="random_free"/>
    <trip id="21" depart="21.00" from="10/6to9/6" to="10/9to9/9" departLane="best" departSpeed="max" departPos="random_free"/>
    <trip id="22" depart="22.00" from="7/9to6/9" to="7/8to7/9" departLane="best" departSpeed="max" departPos="random_free"/>
    <trip id="23" depart="23.00" from="10/3to10/4" to="9/9to10/9" departLane="best" departSpeed="max" departPos="random_free"/>
    <trip id="24" depart="24.00" from="8/4to9/4" to="6/4to5/4" departLane="best" departSpeed="max" departPos="random_free"/>
    <trip id="25" depart="25.00" from="6/8to6/7" to="2/4to1/4" departLane="best" departSpeed="max" departPos="random_free"/>
    <trip id="26" depart="26.00" from="0/3to0/2" to="1/4to1/5" departLane="best" departSpeed="max" departPos="random_free"/>
    <trip id="27" depart="27.00" from="7/2to7/3" to="4/4to4/5" departLane="best" departSpeed="max" departPos="random_free"/>
</routes>
