<?xml version="1.0" encoding="UTF-8"?>
<!-- generated on 2018-04-06 23:20:54.238212 by $Id$
  options: -n mapgrid.net.xml -e 28 -l <doubleminus>trip-attributes=departLane="best" departSpeed="max" departPos="random_free" -o trips.trips.xml
-->
<routes xmlns:xsi="http://www.w3.org/2001/XMLSchema-instance" xsi:noNamespaceSchemaLocation="http://sumo.dlr.de/xsd/routes_file.xsd">
    <trip id="0" depart="0.00" from="7/7to8/7" to="0/10to0/9" departLane="best" departSpeed="max" departPos="random_free"/>
    <trip id="1" depart="1.00" from="7/1to6/1" to="10/4to10/5" departLane="best" departSpeed="max" departPos="random_free"/>
    <trip id="2" depart="2.00" from="5/10to5/9" to="4/7to5/7" departLane="best" departSpeed="max" departPos="random_free"/>
    <trip id="3" depart="3.00" from="5/2to6/2" to="0/4to1/4" departLane="best" departSpeed="max" departPos="random_free"/>
    <trip id="4" depart="4.00" from="2/2to2/1" to="4/1to4/0" departLane="best" departSpeed="max" departPos="random_free"/>
    <trip id="5" depart="5.00" from="6/3to6/4" to="4/10to4/9" departLane="best" departSpeed="max" departPos="random_free"/>
    <trip id="6" depart="6.00" from="6/4to6/5" to="4/5to4/4" departLane="best" departSpeed="max" departPos="random_free"/>
    <trip id="7" depart="7.00" from="6/4to7/4" to="7/3to6/3" departLane="best" departSpeed="max" departPos="random_free"/>
    <trip id="8" depart="8.00" from="4/6to4/7" to="9/6to10/6" departLane="best" departSpeed="max" departPos="random_free"/>
    <trip id="9" depart="9.00" from="9/0to9/1" to="2/7to1/7" departLane="best" departSpeed="max" departPos="random_free"/>
    <trip id="10" depart="10.00" from="9/8to9/9" to="6/0to6/1" departLane="best" departSpeed="max" departPos="random_free"/>
    <trip id="11" depart="11.00" from="6/0to7/0" to="3/10to4/10" departLane="best" departSpeed="max" departPos="random_free"/>
    <trip id="12" depart="12.00" from="0/1to0/2" to="9/4to9/5" departLane="best" departSpeed="max" departPos="random_free"/>
    <trip id="13" depart="13.00" from="9/4to8/4" to="0/6to1/6" departLane="best" departSpeed="max" departPos="random_free"/>
    <trip id="14" depart="14.00" from="3/7to4/7" to="9/8to10/8" departLane="best" departSpeed="max" departPos="random_free"/>
    <trip id="15" depart="15.00" from="8/6to7/6" to="1/6to1/7" departLane="best" departSpeed="max" departPos="random_free"/>
    <trip id="16" depart="16.00" from="2/2to1/2" to="5/6to5/5" departLane="best" departSpeed="max" departPos="random_free"/>
    <trip id="17" depart="17.00" from="5/8to6/8" to="5/7to5/6" departLane="best" departSpeed="max" departPos="random_free"/>
    <trip id="18" depart="18.00" from="8/10to9/10" to="5/0to6/0" departLane="best" departSpeed="max" departPos="random_free"/>
    <trip id="19" depart="19.00" from="2/5to2/4" to="6/5to6/4" departLane="best" departSpeed="max" departPos="random_free"/>
    <trip id="20" depart="20.00" from="1/0to0/0" to="6/2to5/2" departLane="best" departSpeed="max" departPos="random_free"/>
    <trip id="21" depart="21.00" from="4/5to4/4" to="1/10to1/9" departLane="best" departSpeed="max" departPos="random_free"/>
    <trip id="22" depart="22.00" from="9/8to10/8" to="7/4to8/4" departLane="best" departSpeed="max" departPos="random_free"/>
    <trip id="23" depart="23.00" from="5/7to5/6" to="1/3to1/4" departLane="best" departSpeed="max" departPos="random_free"/>
    <trip id="24" depart="24.00" from="6/1to6/2" to="1/9to1/8" departLane="best" departSpeed="max" departPos="random_free"/>
    <trip id="25" depart="25.00" from="3/2to4/2" to="9/1to10/1" departLane="best" departSpeed="max" departPos="random_free"/>
    <trip id="26" depart="26.00" from="8/2to8/1" to="2/3to1/3" departLane="best" departSpeed="max" departPos="random_free"/>
    <trip id="27" depart="27.00" from="4/7to5/7" to="4/2to4/1" departLane="best" departSpeed="max" departPos="random_free"/>
</routes>
