<?xml version="1.0" encoding="UTF-8"?>
<!-- generated on 2018-05-02 15:31:05.480980 by $Id$
  options: -n mapgrid.net.xml -e 38 -l <doubleminus>trip-attributes=departLane="best" departSpeed="max" departPos="random_free" -o trips.trips.xml
-->
<routes xmlns:xsi="http://www.w3.org/2001/XMLSchema-instance" xsi:noNamespaceSchemaLocation="http://sumo.dlr.de/xsd/routes_file.xsd">
    <trip id="0" depart="0.00" from="450298098" to="-28410233#0" departLane="best" departSpeed="max" departPos="random_free"/>
    <trip id="1" depart="1.00" from="422082728#3" to="422082728#3" departLane="best" departSpeed="max" departPos="random_free"/>
    <trip id="2" depart="2.00" from="-156261310#0" to="156261250" departLane="best" departSpeed="max" departPos="random_free"/>
    <trip id="3" depart="3.00" from="-156261356#3" to="448270567#2" departLane="best" departSpeed="max" departPos="random_free"/>
    <trip id="4" depart="4.00" from="-422082701#1" to="307395967#1" departLane="best" departSpeed="max" departPos="random_free"/>
    <trip id="5" depart="5.00" from="448270567#2" to="369538882#2" departLane="best" departSpeed="max" departPos="random_free"/>
    <trip id="6" depart="6.00" from="-28410277#7" to="-418865870#0" departLane="best" departSpeed="max" departPos="random_free"/>
    <trip id="7" depart="7.00" from="-353154174#0" to="156261225" departLane="best" departSpeed="max" departPos="random_free"/>
    <trip id="8" depart="8.00" from="-156261609" to="303948428" departLane="best" departSpeed="max" departPos="random_free"/>
    <trip id="9" depart="9.00" from="307395967#2" to="369538883#1" departLane="best" departSpeed="max" departPos="random_free"/>
    <trip id="10" depart="10.00" from="-450298097" to="450298092" departLane="best" departSpeed="max" departPos="random_free"/>
    <trip id="11" depart="11.00" from="349836653" to="-156261228" departLane="best" departSpeed="max" departPos="random_free"/>
    <trip id="12" depart="12.00" from="156261356#1" to="156261356#3" departLane="best" departSpeed="max" departPos="random_free"/>
    <trip id="13" depart="13.00" from="156261250" to="450298086" departLane="best" departSpeed="max" departPos="random_free"/>
    <trip id="14" depart="14.00" from="303948349#2" to="284980115#1" departLane="best" departSpeed="max" departPos="random_free"/>
    <trip id="15" depart="15.00" from="422082701#0" to="-450298097" departLane="best" departSpeed="max" departPos="random_free"/>
    <trip id="16" depart="16.00" from="156261228" to="367619835#1" departLane="best" departSpeed="max" departPos="random_free"/>
    <trip id="17" depart="17.00" from="156261263" to="303948410" departLane="best" departSpeed="max" departPos="random_free"/>
    <trip id="18" depart="18.00" from="-156261554" to="156261495#1" departLane="best" departSpeed="max" departPos="random_free"/>
    <trip id="19" depart="19.00" from="-156261312#0" to="-156261243" departLane="best" departSpeed="max" departPos="random_free"/>
    <trip id="20" depart="20.00" from="450298097" to="-28410277#7" departLane="best" departSpeed="max" departPos="random_free"/>
    <trip id="21" depart="21.00" from="36054622#0" to="-119109423#0" departLane="best" departSpeed="max" departPos="random_free"/>
    <trip id="22" depart="22.00" from="156261190" to="-361247463#0" departLane="best" departSpeed="max" departPos="random_free"/>
    <trip id="23" depart="23.00" from="286011720#2" to="156261194" departLane="best" departSpeed="max" departPos="random_free"/>
    <trip id="24" depart="24.00" from="-28410233#0" to="-422082701#1" departLane="best" departSpeed="max" departPos="random_free"/>
    <trip id="25" depart="25.00" from="156261251" to="-361247463#0" departLane="best" departSpeed="max" departPos="random_free"/>
    <trip id="26" depart="26.00" from="422082715#1" to="28410233#0" departLane="best" departSpeed="max" departPos="random_free"/>
    <trip id="27" depart="27.00" from="303948410" to="-156261502#6" departLane="best" departSpeed="max" departPos="random_free"/>
    <trip id="28" depart="28.00" from="367619842" to="-156261495#2" departLane="best" departSpeed="max" departPos="random_free"/>
    <trip id="29" depart="29.00" from="-367938203" to="-450298092" departLane="best" departSpeed="max" departPos="random_free"/>
    <trip id="30" depart="30.00" from="327728882#1" to="-156261168" departLane="best" departSpeed="max" departPos="random_free"/>
    <trip id="31" depart="31.00" from="422082717#1" to="455032297" departLane="best" departSpeed="max" departPos="random_free"/>
    <trip id="32" depart="32.00" from="-156261502#6" to="-367938203" departLane="best" departSpeed="max" departPos="random_free"/>
    <trip id="33" depart="33.00" from="-448272049" to="369538882#2" departLane="best" departSpeed="max" departPos="random_free"/>
    <trip id="34" depart="34.00" from="367619835#1" to="369538887#3" departLane="best" departSpeed="max" departPos="random_free"/>
    <trip id="35" depart="35.00" from="-156261312#0" to="-156261312#0" departLane="best" departSpeed="max" departPos="random_free"/>
    <trip id="36" depart="36.00" from="-156261168" to="-308511912" departLane="best" departSpeed="max" departPos="random_free"/>
    <trip id="37" depart="37.00" from="156261230" to="-450298097" departLane="best" departSpeed="max" departPos="random_free"/>
</routes>
