<?xml version="1.0" encoding="UTF-8"?>
<!-- generated on 2018-04-07 18:14:54.314208 by $Id$
  options: -n mapgrid.net.xml -e 28 -l <doubleminus>trip-attributes=departLane="best" departSpeed="max" departPos="random_free" -o trips.trips.xml
-->
<routes xmlns:xsi="http://www.w3.org/2001/XMLSchema-instance" xsi:noNamespaceSchemaLocation="http://sumo.dlr.de/xsd/routes_file.xsd">
    <trip id="0" depart="0.00" from="7/6to7/7" to="7/6to7/5" departLane="best" departSpeed="max" departPos="random_free"/>
    <trip id="1" depart="1.00" from="6/8to6/9" to="5/8to5/7" departLane="best" departSpeed="max" departPos="random_free"/>
    <trip id="2" depart="2.00" from="10/9to10/8" to="2/5to2/4" departLane="best" departSpeed="max" departPos="random_free"/>
    <trip id="3" depart="3.00" from="9/0to9/1" to="4/0to5/0" departLane="best" departSpeed="max" departPos="random_free"/>
    <trip id="4" depart="4.00" from="6/9to6/8" to="10/7to10/6" departLane="best" departSpeed="max" departPos="random_free"/>
    <trip id="5" depart="5.00" from="6/9to7/9" to="8/8to9/8" departLane="best" departSpeed="max" departPos="random_free"/>
    <trip id="6" depart="6.00" from="9/3to10/3" to="8/2to8/3" departLane="best" departSpeed="max" departPos="random_free"/>
    <trip id="7" depart="7.00" from="0/1to0/2" to="5/4to6/4" departLane="best" departSpeed="max" departPos="random_free"/>
    <trip id="8" depart="8.00" from="8/5to8/6" to="7/1to7/0" departLane="best" departSpeed="max" departPos="random_free"/>
    <trip id="9" depart="9.00" from="0/2to0/3" to="1/1to2/1" departLane="best" departSpeed="max" departPos="random_free"/>
    <trip id="10" depart="10.00" from="9/4to9/3" to="1/10to2/10" departLane="best" departSpeed="max" departPos="random_free"/>
    <trip id="11" depart="11.00" from="6/1to5/1" to="10/6to9/6" departLane="best" departSpeed="max" departPos="random_free"/>
    <trip id="12" depart="12.00" from="1/3to2/3" to="3/6to3/7" departLane="best" departSpeed="max" departPos="random_free"/>
    <trip id="13" depart="13.00" from="0/1to0/0" to="8/4to8/3" departLane="best" departSpeed="max" departPos="random_free"/>
    <trip id="14" depart="14.00" from="2/6to1/6" to="1/6to2/6" departLane="best" departSpeed="max" departPos="random_free"/>
    <trip id="15" depart="15.00" from="0/5to0/6" to="1/4to2/4" departLane="best" departSpeed="max" departPos="random_free"/>
    <trip id="16" depart="16.00" from="10/9to10/10" to="7/5to7/4" departLane="best" departSpeed="max" departPos="random_free"/>
    <trip id="17" depart="17.00" from="5/5to5/6" to="0/1to0/0" departLane="best" departSpeed="max" departPos="random_free"/>
    <trip id="18" depart="18.00" from="2/1to2/0" to="2/2to2/1" departLane="best" departSpeed="max" departPos="random_free"/>
    <trip id="19" depart="19.00" from="9/0to9/1" to="8/7to8/6" departLane="best" departSpeed="max" departPos="random_free"/>
    <trip id="20" depart="20.00" from="0/5to0/4" to="9/1to9/2" departLane="best" departSpeed="max" departPos="random_free"/>
    <trip id="21" depart="21.00" from="5/5to5/6" to="5/5to5/4" departLane="best" departSpeed="max" departPos="random_free"/>
    <trip id="22" depart="22.00" from="1/3to1/2" to="1/10to2/10" departLane="best" departSpeed="max" departPos="random_free"/>
    <trip id="23" depart="23.00" from="8/9to9/9" to="1/9to0/9" departLane="best" departSpeed="max" departPos="random_free"/>
    <trip id="24" depart="24.00" from="0/7to0/8" to="0/10to1/10" departLane="best" departSpeed="max" departPos="random_free"/>
    <trip id="25" depart="25.00" from="6/8to7/8" to="4/7to3/7" departLane="best" departSpeed="max" departPos="random_free"/>
    <trip id="26" depart="26.00" from="8/8to9/8" to="8/0to7/0" departLane="best" departSpeed="max" departPos="random_free"/>
    <trip id="27" depart="27.00" from="7/2to8/2" to="6/0to5/0" departLane="best" departSpeed="max" departPos="random_free"/>
</routes>
