<?xml version="1.0" encoding="UTF-8"?>
<!-- generated on 2018-04-26 16:54:25.901411 by $Id$
  options: -n mapgrid.net.xml -e 28 -l <doubleminus>trip-attributes=departLane="best" departSpeed="max" departPos="random_free" -o trips.trips.xml
-->
<routes xmlns:xsi="http://www.w3.org/2001/XMLSchema-instance" xsi:noNamespaceSchemaLocation="http://sumo.dlr.de/xsd/routes_file.xsd">
    <trip id="0" depart="0.00" from="1/6to0/6" to="9/8to8/8" departLane="best" departSpeed="max" departPos="random_free"/>
    <trip id="1" depart="1.00" from="8/10to8/9" to="3/4to3/5" departLane="best" departSpeed="max" departPos="random_free"/>
    <trip id="2" depart="2.00" from="2/2to2/1" to="5/4to5/3" departLane="best" departSpeed="max" departPos="random_free"/>
    <trip id="3" depart="3.00" from="8/7to8/8" to="6/10to6/9" departLane="best" departSpeed="max" departPos="random_free"/>
    <trip id="4" depart="4.00" from="10/1to9/1" to="4/4to3/4" departLane="best" departSpeed="max" departPos="random_free"/>
    <trip id="5" depart="5.00" from="2/3to3/3" to="4/2to5/2" departLane="best" departSpeed="max" departPos="random_free"/>
    <trip id="6" depart="6.00" from="4/9to5/9" to="2/0to3/0" departLane="best" departSpeed="max" departPos="random_free"/>
    <trip id="7" depart="7.00" from="3/10to3/9" to="1/3to2/3" departLane="best" departSpeed="max" departPos="random_free"/>
    <trip id="8" depart="8.00" from="7/8to8/8" to="1/1to2/1" departLane="best" departSpeed="max" departPos="random_free"/>
    <trip id="9" depart="9.00" from="0/8to1/8" to="0/6to0/7" departLane="best" departSpeed="max" departPos="random_free"/>
    <trip id="10" depart="10.00" from="1/4to0/4" to="6/4to6/5" departLane="best" departSpeed="max" departPos="random_free"/>
    <trip id="11" depart="11.00" from="3/9to4/9" to="7/1to8/1" departLane="best" departSpeed="max" departPos="random_free"/>
    <trip id="12" depart="12.00" from="10/9to10/10" to="10/3to9/3" departLane="best" departSpeed="max" departPos="random_free"/>
    <trip id="13" depart="13.00" from="1/3to1/4" to="1/1to1/0" departLane="best" departSpeed="max" departPos="random_free"/>
    <trip id="14" depart="14.00" from="6/8to7/8" to="10/0to9/0" departLane="best" departSpeed="max" departPos="random_free"/>
    <trip id="15" depart="15.00" from="4/9to3/9" to="4/2to4/1" departLane="best" departSpeed="max" departPos="random_free"/>
    <trip id="16" depart="16.00" from="7/8to7/9" to="0/10to0/9" departLane="best" departSpeed="max" departPos="random_free"/>
    <trip id="17" depart="17.00" from="2/5to3/5" to="5/6to4/6" departLane="best" departSpeed="max" departPos="random_free"/>
    <trip id="18" depart="18.00" from="8/7to8/8" to="5/3to4/3" departLane="best" departSpeed="max" departPos="random_free"/>
    <trip id="19" depart="19.00" from="1/6to1/7" to="8/9to8/10" departLane="best" departSpeed="max" departPos="random_free"/>
    <trip id="20" depart="20.00" from="9/1to8/1" to="2/2to1/2" departLane="best" departSpeed="max" departPos="random_free"/>
    <trip id="21" depart="21.00" from="8/1to8/0" to="5/8to4/8" departLane="best" departSpeed="max" departPos="random_free"/>
    <trip id="22" depart="22.00" from="9/3to10/3" to="5/3to5/4" departLane="best" departSpeed="max" departPos="random_free"/>
    <trip id="23" depart="23.00" from="9/8to10/8" to="9/2to10/2" departLane="best" departSpeed="max" departPos="random_free"/>
    <trip id="24" depart="24.00" from="1/1to0/1" to="7/7to7/6" departLane="best" departSpeed="max" departPos="random_free"/>
    <trip id="25" depart="25.00" from="8/8to9/8" to="7/6to7/7" departLane="best" departSpeed="max" departPos="random_free"/>
    <trip id="26" depart="26.00" from="2/9to2/8" to="10/8to10/7" departLane="best" departSpeed="max" departPos="random_free"/>
    <trip id="27" depart="27.00" from="5/2to5/3" to="2/2to3/2" departLane="best" departSpeed="max" departPos="random_free"/>
</routes>
