<?xml version="1.0" encoding="UTF-8"?>
<!-- generated on 2018-05-02 19:22:38.185639 by $Id$
  options: -n mapgrid.net.xml -e 28 -l <doubleminus>trip-attributes=departLane="best" departSpeed="max" departPos="random_free" -o trips.trips.xml
-->
<routes xmlns:xsi="http://www.w3.org/2001/XMLSchema-instance" xsi:noNamespaceSchemaLocation="http://sumo.dlr.de/xsd/routes_file.xsd">
    <trip id="0" depart="0.00" from="9/0to8/0" to="9/5to9/4" departLane="best" departSpeed="max" departPos="random_free"/>
    <trip id="1" depart="1.00" from="7/1to7/2" to="3/7to3/8" departLane="best" departSpeed="max" departPos="random_free"/>
    <trip id="2" depart="2.00" from="1/1to1/2" to="10/6to10/5" departLane="best" departSpeed="max" departPos="random_free"/>
    <trip id="3" depart="3.00" from="6/8to6/7" to="1/1to1/0" departLane="best" departSpeed="max" departPos="random_free"/>
    <trip id="4" depart="4.00" from="8/4to9/4" to="6/7to5/7" departLane="best" departSpeed="max" departPos="random_free"/>
    <trip id="5" depart="5.00" from="6/0to7/0" to="10/6to9/6" departLane="best" departSpeed="max" departPos="random_free"/>
    <trip id="6" depart="6.00" from="1/9to2/9" to="0/8to0/7" departLane="best" departSpeed="max" departPos="random_free"/>
    <trip id="7" depart="7.00" from="9/2to8/2" to="2/0to1/0" departLane="best" departSpeed="max" departPos="random_free"/>
    <trip id="8" depart="8.00" from="4/9to3/9" to="10/6to9/6" departLane="best" departSpeed="max" departPos="random_free"/>
    <trip id="9" depart="9.00" from="3/5to2/5" to="2/2to1/2" departLane="best" departSpeed="max" departPos="random_free"/>
    <trip id="10" depart="10.00" from="1/4to1/3" to="4/10to5/10" departLane="best" departSpeed="max" departPos="random_free"/>
    <trip id="11" depart="11.00" from="5/9to6/9" to="9/0to8/0" departLane="best" departSpeed="max" departPos="random_free"/>
    <trip id="12" depart="12.00" from="9/7to9/8" to="3/1to2/1" departLane="best" departSpeed="max" departPos="random_free"/>
    <trip id="13" depart="13.00" from="0/4to1/4" to="8/3to9/3" departLane="best" departSpeed="max" departPos="random_free"/>
    <trip id="14" depart="14.00" from="9/7to8/7" to="9/8to9/9" departLane="best" departSpeed="max" departPos="random_free"/>
    <trip id="15" depart="15.00" from="7/7to7/8" to="2/1to1/1" departLane="best" departSpeed="max" departPos="random_free"/>
    <trip id="16" depart="16.00" from="6/2to5/2" to="1/0to2/0" departLane="best" departSpeed="max" departPos="random_free"/>
    <trip id="17" depart="17.00" from="6/2to5/2" to="8/5to9/5" departLane="best" departSpeed="max" departPos="random_free"/>
    <trip id="18" depart="18.00" from="5/9to4/9" to="10/2to9/2" departLane="best" departSpeed="max" departPos="random_free"/>
    <trip id="19" depart="19.00" from="6/8to6/9" to="8/5to7/5" departLane="best" departSpeed="max" departPos="random_free"/>
    <trip id="20" depart="20.00" from="6/7to6/8" to="10/7to10/8" departLane="best" departSpeed="max" departPos="random_free"/>
    <trip id="21" depart="21.00" from="5/8to5/9" to="7/7to8/7" departLane="best" departSpeed="max" departPos="random_free"/>
    <trip id="22" depart="22.00" from="4/4to4/5" to="4/3to4/4" departLane="best" departSpeed="max" departPos="random_free"/>
    <trip id="23" depart="23.00" from="10/2to10/1" to="7/8to6/8" departLane="best" departSpeed="max" departPos="random_free"/>
    <trip id="24" depart="24.00" from="7/0to6/0" to="7/9to7/10" departLane="best" departSpeed="max" departPos="random_free"/>
    <trip id="25" depart="25.00" from="1/6to0/6" to="9/6to9/5" departLane="best" departSpeed="max" departPos="random_free"/>
    <trip id="26" depart="26.00" from="7/6to8/6" to="2/3to1/3" departLane="best" departSpeed="max" departPos="random_free"/>
    <trip id="27" depart="27.00" from="6/4to6/3" to="0/10to1/10" departLane="best" departSpeed="max" departPos="random_free"/>
</routes>
