<?xml version="1.0" encoding="UTF-8"?>
<!-- generated on 2018-04-26 16:42:54.898407 by $Id$
  options: -n mapgrid.net.xml -e 28 -l <doubleminus>trip-attributes=departLane="best" departSpeed="max" departPos="random_free" -o trips.trips.xml
-->
<routes xmlns:xsi="http://www.w3.org/2001/XMLSchema-instance" xsi:noNamespaceSchemaLocation="http://sumo.dlr.de/xsd/routes_file.xsd">
    <trip id="0" depart="0.00" from="3/5to4/5" to="5/1to5/0" departLane="best" departSpeed="max" departPos="random_free"/>
    <trip id="1" depart="1.00" from="8/0to8/1" to="1/3to2/3" departLane="best" departSpeed="max" departPos="random_free"/>
    <trip id="2" depart="2.00" from="7/4to6/4" to="4/8to5/8" departLane="best" departSpeed="max" departPos="random_free"/>
    <trip id="3" depart="3.00" from="10/9to10/8" to="9/7to9/6" departLane="best" departSpeed="max" departPos="random_free"/>
    <trip id="4" depart="4.00" from="7/10to8/10" to="7/9to7/10" departLane="best" departSpeed="max" departPos="random_free"/>
    <trip id="5" depart="5.00" from="10/6to10/7" to="4/2to3/2" departLane="best" departSpeed="max" departPos="random_free"/>
    <trip id="6" depart="6.00" from="9/0to10/0" to="5/5to5/6" departLane="best" departSpeed="max" departPos="random_free"/>
    <trip id="7" depart="7.00" from="2/9to3/9" to="9/0to8/0" departLane="best" departSpeed="max" departPos="random_free"/>
    <trip id="8" depart="8.00" from="6/4to6/5" to="8/4to8/5" departLane="best" departSpeed="max" departPos="random_free"/>
    <trip id="9" depart="9.00" from="8/5to8/4" to="2/9to2/8" departLane="best" departSpeed="max" departPos="random_free"/>
    <trip id="10" depart="10.00" from="8/4to8/5" to="5/4to5/5" departLane="best" departSpeed="max" departPos="random_free"/>
    <trip id="11" depart="11.00" from="1/2to1/1" to="3/0to3/1" departLane="best" departSpeed="max" departPos="random_free"/>
    <trip id="12" depart="12.00" from="2/3to2/4" to="10/8to10/9" departLane="best" departSpeed="max" departPos="random_free"/>
    <trip id="13" depart="13.00" from="1/0to1/1" to="2/9to2/10" departLane="best" departSpeed="max" departPos="random_free"/>
    <trip id="14" depart="14.00" from="3/7to3/8" to="10/0to9/0" departLane="best" departSpeed="max" departPos="random_free"/>
    <trip id="15" depart="15.00" from="8/9to7/9" to="8/2to9/2" departLane="best" departSpeed="max" departPos="random_free"/>
    <trip id="16" depart="16.00" from="5/5to5/6" to="2/5to3/5" departLane="best" departSpeed="max" departPos="random_free"/>
    <trip id="17" depart="17.00" from="4/4to3/4" to="1/8to1/9" departLane="best" departSpeed="max" departPos="random_free"/>
    <trip id="18" depart="18.00" from="5/6to4/6" to="9/0to8/0" departLane="best" departSpeed="max" departPos="random_free"/>
    <trip id="19" depart="19.00" from="6/5to7/5" to="8/4to8/5" departLane="best" departSpeed="max" departPos="random_free"/>
    <trip id="20" depart="20.00" from="1/9to2/9" to="8/4to8/3" departLane="best" departSpeed="max" departPos="random_free"/>
    <trip id="21" depart="21.00" from="10/6to10/7" to="8/5to7/5" departLane="best" departSpeed="max" departPos="random_free"/>
    <trip id="22" depart="22.00" from="9/10to8/10" to="2/2to2/3" departLane="best" departSpeed="max" departPos="random_free"/>
    <trip id="23" depart="23.00" from="4/5to3/5" to="6/10to5/10" departLane="best" departSpeed="max" departPos="random_free"/>
    <trip id="24" depart="24.00" from="10/7to10/8" to="2/8to1/8" departLane="best" departSpeed="max" departPos="random_free"/>
    <trip id="25" depart="25.00" from="8/8to8/7" to="1/7to1/8" departLane="best" departSpeed="max" departPos="random_free"/>
    <trip id="26" depart="26.00" from="6/4to7/4" to="7/2to8/2" departLane="best" departSpeed="max" departPos="random_free"/>
    <trip id="27" depart="27.00" from="10/7to9/7" to="4/8to3/8" departLane="best" departSpeed="max" departPos="random_free"/>
</routes>
