<?xml version="1.0" encoding="UTF-8"?>
<!-- generated on 2018-05-02 21:57:27.834912 by $Id$
  options: -n mapgrid.net.xml -e 28 -l <doubleminus>trip-attributes=departLane="best" departSpeed="max" departPos="random_free" -o trips.trips.xml
-->
<routes xmlns:xsi="http://www.w3.org/2001/XMLSchema-instance" xsi:noNamespaceSchemaLocation="http://sumo.dlr.de/xsd/routes_file.xsd">
    <trip id="0" depart="0.00" from="317197954#4" to="448270567#2" departLane="best" departSpeed="max" departPos="random_free"/>
    <trip id="1" depart="1.00" from="-367619846#2" to="303948412#0" departLane="best" departSpeed="max" departPos="random_free"/>
    <trip id="2" depart="2.00" from="303948421#1" to="156261263" departLane="best" departSpeed="max" departPos="random_free"/>
    <trip id="3" depart="3.00" from="-156261250" to="-156261279" departLane="best" departSpeed="max" departPos="random_free"/>
    <trip id="4" depart="4.00" from="28410233#0" to="-303948407" departLane="best" departSpeed="max" departPos="random_free"/>
    <trip id="5" depart="5.00" from="204363487" to="-422082695" departLane="best" departSpeed="max" departPos="random_free"/>
    <trip id="6" depart="6.00" from="-353154171#1" to="327728882#5" departLane="best" departSpeed="max" departPos="random_free"/>
    <trip id="7" depart="7.00" from="156261342#0" to="156261342#0" departLane="best" departSpeed="max" departPos="random_free"/>
    <trip id="8" depart="8.00" from="367619833#1" to="-36048880#0" departLane="best" departSpeed="max" departPos="random_free"/>
    <trip id="9" depart="9.00" from="303948410" to="286011720#6" departLane="best" departSpeed="max" departPos="random_free"/>
    <trip id="10" depart="10.00" from="367619833#1" to="-376918047" departLane="best" departSpeed="max" departPos="random_free"/>
    <trip id="11" depart="11.00" from="449480718" to="-156261251" departLane="best" departSpeed="max" departPos="random_free"/>
    <trip id="12" depart="12.00" from="-317197954#4" to="-317197954#5" departLane="best" departSpeed="max" departPos="random_free"/>
    <trip id="13" depart="13.00" from="-303948410" to="285027169" departLane="best" departSpeed="max" departPos="random_free"/>
    <trip id="14" depart="14.00" from="369538887#3" to="156261190" departLane="best" departSpeed="max" departPos="random_free"/>
    <trip id="15" depart="15.00" from="450298097" to="448270567#4" departLane="best" departSpeed="max" departPos="random_free"/>
    <trip id="16" depart="16.00" from="284980115#4" to="28716610" departLane="best" departSpeed="max" departPos="random_free"/>
    <trip id="17" depart="17.00" from="156261243" to="367938203" departLane="best" departSpeed="max" departPos="random_free"/>
    <trip id="18" depart="18.00" from="-353154174#1" to="449480717#2" departLane="best" departSpeed="max" departPos="random_free"/>
    <trip id="19" depart="19.00" from="156261495#2" to="-450298094" departLane="best" departSpeed="max" departPos="random_free"/>
    <trip id="20" depart="20.00" from="-450525268" to="-156261169" departLane="best" departSpeed="max" departPos="random_free"/>
    <trip id="21" depart="21.00" from="-422082728#3" to="303948407" departLane="best" departSpeed="max" departPos="random_free"/>
    <trip id="22" depart="22.00" from="156261190" to="422082677" departLane="best" departSpeed="max" departPos="random_free"/>
    <trip id="23" depart="23.00" from="349836653" to="-156261367" departLane="best" departSpeed="max" departPos="random_free"/>
    <trip id="24" depart="24.00" from="-303948410" to="-156261225" departLane="best" departSpeed="max" departPos="random_free"/>
    <trip id="25" depart="25.00" from="451295387" to="28410233#0" departLane="best" departSpeed="max" departPos="random_free"/>
    <trip id="26" depart="26.00" from="367619845#1" to="349836653" departLane="best" departSpeed="max" departPos="random_free"/>
    <trip id="27" depart="27.00" from="450298097" to="156261488" departLane="best" departSpeed="max" departPos="random_free"/>
</routes>
