<?xml version="1.0" encoding="UTF-8"?>
<!-- generated on 2018-05-03 22:45:27.368216 by $Id$
  options: -n mapgrid.net.xml -e 28 -l <doubleminus>trip-attributes=departLane="best" departSpeed="max" departPos="random_free" -o trips.trips.xml
-->
<routes xmlns:xsi="http://www.w3.org/2001/XMLSchema-instance" xsi:noNamespaceSchemaLocation="http://sumo.dlr.de/xsd/routes_file.xsd">
    <trip id="0" depart="0.00" from="1/3to1/2" to="1/7to0/7" departLane="best" departSpeed="max" departPos="random_free"/>
    <trip id="1" depart="1.00" from="6/7to6/6" to="3/2to4/2" departLane="best" departSpeed="max" departPos="random_free"/>
    <trip id="2" depart="2.00" from="3/8to3/9" to="1/0to1/1" departLane="best" departSpeed="max" departPos="random_free"/>
    <trip id="3" depart="3.00" from="7/4to8/4" to="0/0to0/1" departLane="best" departSpeed="max" departPos="random_free"/>
    <trip id="4" depart="4.00" from="1/6to0/6" to="0/7to0/8" departLane="best" departSpeed="max" departPos="random_free"/>
    <trip id="5" depart="5.00" from="0/2to0/1" to="2/1to2/0" departLane="best" departSpeed="max" departPos="random_free"/>
    <trip id="6" depart="6.00" from="0/3to0/4" to="8/3to9/3" departLane="best" departSpeed="max" departPos="random_free"/>
    <trip id="7" depart="7.00" from="9/4to9/5" to="6/9to6/10" departLane="best" departSpeed="max" departPos="random_free"/>
    <trip id="8" depart="8.00" from="7/4to6/4" to="0/2to0/1" departLane="best" departSpeed="max" departPos="random_free"/>
    <trip id="9" depart="9.00" from="0/1to1/1" to="9/3to9/2" departLane="best" departSpeed="max" departPos="random_free"/>
    <trip id="10" depart="10.00" from="2/3to3/3" to="7/7to7/6" departLane="best" departSpeed="max" departPos="random_free"/>
    <trip id="11" depart="11.00" from="4/5to4/4" to="6/2to6/1" departLane="best" departSpeed="max" departPos="random_free"/>
    <trip id="12" depart="12.00" from="1/4to1/5" to="2/9to3/9" departLane="best" departSpeed="max" departPos="random_free"/>
    <trip id="13" depart="13.00" from="4/6to3/6" to="0/10to0/9" departLane="best" departSpeed="max" departPos="random_free"/>
    <trip id="14" depart="14.00" from="4/3to3/3" to="7/2to8/2" departLane="best" departSpeed="max" departPos="random_free"/>
    <trip id="15" depart="15.00" from="2/5to2/6" to="3/10to4/10" departLane="best" departSpeed="max" departPos="random_free"/>
    <trip id="16" depart="16.00" from="3/3to2/3" to="6/8to5/8" departLane="best" departSpeed="max" departPos="random_free"/>
    <trip id="17" depart="17.00" from="5/6to5/5" to="1/3to1/4" departLane="best" departSpeed="max" departPos="random_free"/>
    <trip id="18" depart="18.00" from="5/6to5/7" to="10/3to9/3" departLane="best" departSpeed="max" departPos="random_free"/>
    <trip id="19" depart="19.00" from="4/1to4/2" to="4/4to3/4" departLane="best" departSpeed="max" departPos="random_free"/>
    <trip id="20" depart="20.00" from="2/0to1/0" to="7/4to6/4" departLane="best" departSpeed="max" departPos="random_free"/>
    <trip id="21" depart="21.00" from="1/9to2/9" to="5/2to6/2" departLane="best" departSpeed="max" departPos="random_free"/>
    <trip id="22" depart="22.00" from="6/1to5/1" to="6/9to6/8" departLane="best" departSpeed="max" departPos="random_free"/>
    <trip id="23" depart="23.00" from="9/1to9/0" to="8/10to9/10" departLane="best" departSpeed="max" departPos="random_free"/>
    <trip id="24" depart="24.00" from="6/1to7/1" to="9/4to9/3" departLane="best" departSpeed="max" departPos="random_free"/>
    <trip id="25" depart="25.00" from="2/2to3/2" to="10/7to10/6" departLane="best" departSpeed="max" departPos="random_free"/>
    <trip id="26" depart="26.00" from="8/1to9/1" to="3/10to4/10" departLane="best" departSpeed="max" departPos="random_free"/>
    <trip id="27" depart="27.00" from="3/7to4/7" to="8/0to7/0" departLane="best" departSpeed="max" departPos="random_free"/>
</routes>
