<?xml version="1.0" encoding="UTF-8"?>
<!-- generated on 2018-04-08 17:00:31.871078 by $Id$
  options: -n mapgrid.net.xml -e 28 -l <doubleminus>trip-attributes=departLane="best" departSpeed="max" departPos="random_free" -o trips.trips.xml
-->
<routes xmlns:xsi="http://www.w3.org/2001/XMLSchema-instance" xsi:noNamespaceSchemaLocation="http://sumo.dlr.de/xsd/routes_file.xsd">
    <trip id="0" depart="0.00" from="6/2to6/1" to="6/9to7/9" departLane="best" departSpeed="max" departPos="random_free"/>
    <trip id="1" depart="1.00" from="8/5to7/5" to="3/8to2/8" departLane="best" departSpeed="max" departPos="random_free"/>
    <trip id="2" depart="2.00" from="0/6to0/7" to="1/7to2/7" departLane="best" departSpeed="max" departPos="random_free"/>
    <trip id="3" depart="3.00" from="1/0to0/0" to="5/10to4/10" departLane="best" departSpeed="max" departPos="random_free"/>
    <trip id="4" depart="4.00" from="9/7to10/7" to="6/7to5/7" departLane="best" departSpeed="max" departPos="random_free"/>
    <trip id="5" depart="5.00" from="4/10to5/10" to="5/5to4/5" departLane="best" departSpeed="max" departPos="random_free"/>
    <trip id="6" depart="6.00" from="8/5to9/5" to="8/3to8/2" departLane="best" departSpeed="max" departPos="random_free"/>
    <trip id="7" depart="7.00" from="3/10to2/10" to="3/5to3/6" departLane="best" departSpeed="max" departPos="random_free"/>
    <trip id="8" depart="8.00" from="10/3to10/2" to="2/5to3/5" departLane="best" departSpeed="max" departPos="random_free"/>
    <trip id="9" depart="9.00" from="3/7to2/7" to="5/2to5/3" departLane="best" departSpeed="max" departPos="random_free"/>
    <trip id="10" depart="10.00" from="4/9to4/10" to="3/3to3/2" departLane="best" departSpeed="max" departPos="random_free"/>
    <trip id="11" depart="11.00" from="7/1to7/2" to="6/5to7/5" departLane="best" departSpeed="max" departPos="random_free"/>
    <trip id="12" depart="12.00" from="9/8to9/9" to="7/4to8/4" departLane="best" departSpeed="max" departPos="random_free"/>
    <trip id="13" depart="13.00" from="5/7to5/6" to="6/3to6/4" departLane="best" departSpeed="max" departPos="random_free"/>
    <trip id="14" depart="14.00" from="8/1to8/0" to="0/0to1/0" departLane="best" departSpeed="max" departPos="random_free"/>
    <trip id="15" depart="15.00" from="9/6to9/5" to="3/5to2/5" departLane="best" departSpeed="max" departPos="random_free"/>
    <trip id="16" depart="16.00" from="6/6to6/5" to="1/2to1/1" departLane="best" departSpeed="max" departPos="random_free"/>
    <trip id="17" depart="17.00" from="4/9to5/9" to="6/8to5/8" departLane="best" departSpeed="max" departPos="random_free"/>
    <trip id="18" depart="18.00" from="7/10to6/10" to="2/9to2/8" departLane="best" departSpeed="max" departPos="random_free"/>
    <trip id="19" depart="19.00" from="8/8to7/8" to="1/2to0/2" departLane="best" departSpeed="max" departPos="random_free"/>
    <trip id="20" depart="20.00" from="4/10to4/9" to="1/4to0/4" departLane="best" departSpeed="max" departPos="random_free"/>
    <trip id="21" depart="21.00" from="1/1to1/0" to="3/9to4/9" departLane="best" departSpeed="max" departPos="random_free"/>
    <trip id="22" depart="22.00" from="1/10to2/10" to="7/1to6/1" departLane="best" departSpeed="max" departPos="random_free"/>
    <trip id="23" depart="23.00" from="7/2to7/3" to="7/5to7/4" departLane="best" departSpeed="max" departPos="random_free"/>
    <trip id="24" depart="24.00" from="0/4to0/3" to="9/3to9/4" departLane="best" departSpeed="max" departPos="random_free"/>
    <trip id="25" depart="25.00" from="8/4to7/4" to="2/8to3/8" departLane="best" departSpeed="max" departPos="random_free"/>
    <trip id="26" depart="26.00" from="8/4to9/4" to="0/5to1/5" departLane="best" departSpeed="max" departPos="random_free"/>
    <trip id="27" depart="27.00" from="1/6to0/6" to="1/4to1/5" departLane="best" departSpeed="max" departPos="random_free"/>
</routes>
