<?xml version="1.0" encoding="UTF-8"?>
<!-- generated on 2018-05-03 23:30:58.137949 by $Id$
  options: -n mapgrid.net.xml -e 28 -l <doubleminus>trip-attributes=departLane="best" departSpeed="max" departPos="random_free" -o trips.trips.xml
-->
<routes xmlns:xsi="http://www.w3.org/2001/XMLSchema-instance" xsi:noNamespaceSchemaLocation="http://sumo.dlr.de/xsd/routes_file.xsd">
    <trip id="0" depart="0.00" from="10/5to10/4" to="7/9to8/9" departLane="best" departSpeed="max" departPos="random_free"/>
    <trip id="1" depart="1.00" from="1/3to1/4" to="10/3to9/3" departLane="best" departSpeed="max" departPos="random_free"/>
    <trip id="2" depart="2.00" from="7/1to7/0" to="7/7to6/7" departLane="best" departSpeed="max" departPos="random_free"/>
    <trip id="3" depart="3.00" from="10/8to10/7" to="2/5to2/4" departLane="best" departSpeed="max" departPos="random_free"/>
    <trip id="4" depart="4.00" from="2/6to2/5" to="7/3to6/3" departLane="best" departSpeed="max" departPos="random_free"/>
    <trip id="5" depart="5.00" from="4/5to5/5" to="3/4to3/5" departLane="best" departSpeed="max" departPos="random_free"/>
    <trip id="6" depart="6.00" from="10/7to10/6" to="4/9to4/10" departLane="best" departSpeed="max" departPos="random_free"/>
    <trip id="7" depart="7.00" from="9/9to9/8" to="5/7to5/6" departLane="best" departSpeed="max" departPos="random_free"/>
    <trip id="8" depart="8.00" from="7/2to7/3" to="7/4to8/4" departLane="best" departSpeed="max" departPos="random_free"/>
    <trip id="9" depart="9.00" from="7/9to8/9" to="8/1to7/1" departLane="best" departSpeed="max" departPos="random_free"/>
    <trip id="10" depart="10.00" from="4/10to3/10" to="2/6to1/6" departLane="best" departSpeed="max" departPos="random_free"/>
    <trip id="11" depart="11.00" from="0/4to0/5" to="6/0to6/1" departLane="best" departSpeed="max" departPos="random_free"/>
    <trip id="12" depart="12.00" from="2/2to3/2" to="7/4to7/3" departLane="best" departSpeed="max" departPos="random_free"/>
    <trip id="13" depart="13.00" from="2/10to2/9" to="9/9to9/8" departLane="best" departSpeed="max" departPos="random_free"/>
    <trip id="14" depart="14.00" from="9/1to9/2" to="2/0to2/1" departLane="best" departSpeed="max" departPos="random_free"/>
    <trip id="15" depart="15.00" from="1/2to1/3" to="6/6to6/7" departLane="best" departSpeed="max" departPos="random_free"/>
    <trip id="16" depart="16.00" from="6/6to5/6" to="7/2to7/3" departLane="best" departSpeed="max" departPos="random_free"/>
    <trip id="17" depart="17.00" from="7/8to7/7" to="1/3to1/4" departLane="best" departSpeed="max" departPos="random_free"/>
    <trip id="18" depart="18.00" from="7/8to7/7" to="9/10to8/10" departLane="best" departSpeed="max" departPos="random_free"/>
    <trip id="19" depart="19.00" from="2/7to2/8" to="2/7to2/8" departLane="best" departSpeed="max" departPos="random_free"/>
    <trip id="20" depart="20.00" from="8/3to8/4" to="9/4to9/3" departLane="best" departSpeed="max" departPos="random_free"/>
    <trip id="21" depart="21.00" from="7/7to8/7" to="7/7to8/7" departLane="best" departSpeed="max" departPos="random_free"/>
    <trip id="22" depart="22.00" from="10/8to10/7" to="8/6to8/7" departLane="best" departSpeed="max" departPos="random_free"/>
    <trip id="23" depart="23.00" from="2/5to2/6" to="1/0to2/0" departLane="best" departSpeed="max" departPos="random_free"/>
    <trip id="24" depart="24.00" from="4/9to5/9" to="4/4to4/3" departLane="best" departSpeed="max" departPos="random_free"/>
    <trip id="25" depart="25.00" from="1/5to2/5" to="8/10to7/10" departLane="best" departSpeed="max" departPos="random_free"/>
    <trip id="26" depart="26.00" from="7/10to6/10" to="1/9to1/8" departLane="best" departSpeed="max" departPos="random_free"/>
    <trip id="27" depart="27.00" from="5/3to5/4" to="8/5to8/6" departLane="best" departSpeed="max" departPos="random_free"/>
</routes>
