<?xml version="1.0" encoding="UTF-8"?>
<!-- generated on 2018-05-02 21:57:15.107900 by $Id$
  options: -n mapgrid.net.xml -e 28 -l <doubleminus>trip-attributes=departLane="best" departSpeed="max" departPos="random_free" -o trips.trips.xml
-->
<routes xmlns:xsi="http://www.w3.org/2001/XMLSchema-instance" xsi:noNamespaceSchemaLocation="http://sumo.dlr.de/xsd/routes_file.xsd">
    <trip id="0" depart="0.00" from="156261190" to="156261613#0" departLane="best" departSpeed="max" departPos="random_free"/>
    <trip id="1" depart="1.00" from="28410277#7" to="156261342#0" departLane="best" departSpeed="max" departPos="random_free"/>
    <trip id="2" depart="2.00" from="156261356#2" to="156261342#0" departLane="best" departSpeed="max" departPos="random_free"/>
    <trip id="3" depart="3.00" from="449480717#1" to="448270567#2" departLane="best" departSpeed="max" departPos="random_free"/>
    <trip id="4" depart="4.00" from="-156261310#0" to="450298092" departLane="best" departSpeed="max" departPos="random_free"/>
    <trip id="5" depart="5.00" from="28410277#2" to="422082677" departLane="best" departSpeed="max" departPos="random_free"/>
    <trip id="6" depart="6.00" from="-353154171#1" to="-156261342#0" departLane="best" departSpeed="max" departPos="random_free"/>
    <trip id="7" depart="7.00" from="317197954#2" to="308511913" departLane="best" departSpeed="max" departPos="random_free"/>
    <trip id="8" depart="8.00" from="-156261502#6" to="422082693" departLane="best" departSpeed="max" departPos="random_free"/>
    <trip id="9" depart="9.00" from="284980115#4" to="156261557" departLane="best" departSpeed="max" departPos="random_free"/>
    <trip id="10" depart="10.00" from="-317197954#4" to="449480717#1" departLane="best" departSpeed="max" departPos="random_free"/>
    <trip id="11" depart="11.00" from="156261356#1" to="156261488" departLane="best" departSpeed="max" departPos="random_free"/>
    <trip id="12" depart="12.00" from="156261613#1" to="156261299#0" departLane="best" departSpeed="max" departPos="random_free"/>
    <trip id="13" depart="13.00" from="156261243" to="284980115#4" departLane="best" departSpeed="max" departPos="random_free"/>
    <trip id="14" depart="14.00" from="-156261495#0" to="-156261228" departLane="best" departSpeed="max" departPos="random_free"/>
    <trip id="15" depart="15.00" from="418865870#0" to="-450525271" departLane="best" departSpeed="max" departPos="random_free"/>
    <trip id="16" depart="16.00" from="422082715#0" to="28410233#0" departLane="best" departSpeed="max" departPos="random_free"/>
    <trip id="17" depart="17.00" from="-303948360" to="369538887#3" departLane="best" departSpeed="max" departPos="random_free"/>
    <trip id="18" depart="18.00" from="-28410233#0" to="156261523" departLane="best" departSpeed="max" departPos="random_free"/>
    <trip id="19" depart="19.00" from="303948424" to="-156261356#3" departLane="best" departSpeed="max" departPos="random_free"/>
    <trip id="20" depart="20.00" from="307395967#1" to="-156261228" departLane="best" departSpeed="max" departPos="random_free"/>
    <trip id="21" depart="21.00" from="-422082686" to="-156261169" departLane="best" departSpeed="max" departPos="random_free"/>
    <trip id="22" depart="22.00" from="327728882#5" to="451286564" departLane="best" departSpeed="max" departPos="random_free"/>
    <trip id="23" depart="23.00" from="376918047" to="-156261445" departLane="best" departSpeed="max" departPos="random_free"/>
    <trip id="24" depart="24.00" from="450298099" to="303948361#1" departLane="best" departSpeed="max" departPos="random_free"/>
    <trip id="25" depart="25.00" from="-156261228" to="284980115#8" departLane="best" departSpeed="max" departPos="random_free"/>
    <trip id="26" depart="26.00" from="-28410233#0" to="455032297" departLane="best" departSpeed="max" departPos="random_free"/>
    <trip id="27" depart="27.00" from="156261613#2" to="156261356#1" departLane="best" departSpeed="max" departPos="random_free"/>
</routes>
