<?xml version="1.0" encoding="UTF-8"?>
<!-- generated on 2018-05-03 22:46:44.587888 by $Id$
  options: -n mapgrid.net.xml -e 28 -l <doubleminus>trip-attributes=departLane="best" departSpeed="max" departPos="random_free" -o trips.trips.xml
-->
<routes xmlns:xsi="http://www.w3.org/2001/XMLSchema-instance" xsi:noNamespaceSchemaLocation="http://sumo.dlr.de/xsd/routes_file.xsd">
    <trip id="0" depart="0.00" from="9/4to10/4" to="4/8to3/8" departLane="best" departSpeed="max" departPos="random_free"/>
    <trip id="1" depart="1.00" from="6/8to6/7" to="9/5to10/5" departLane="best" departSpeed="max" departPos="random_free"/>
    <trip id="2" depart="2.00" from="2/10to3/10" to="7/1to7/2" departLane="best" departSpeed="max" departPos="random_free"/>
    <trip id="3" depart="3.00" from="5/4to5/5" to="7/3to7/2" departLane="best" departSpeed="max" departPos="random_free"/>
    <trip id="4" depart="4.00" from="0/9to0/10" to="7/8to7/9" departLane="best" departSpeed="max" departPos="random_free"/>
    <trip id="5" depart="5.00" from="6/1to6/2" to="6/4to6/5" departLane="best" departSpeed="max" departPos="random_free"/>
    <trip id="6" depart="6.00" from="5/6to4/6" to="5/3to4/3" departLane="best" departSpeed="max" departPos="random_free"/>
    <trip id="7" depart="7.00" from="9/2to9/1" to="0/8to0/9" departLane="best" departSpeed="max" departPos="random_free"/>
    <trip id="8" depart="8.00" from="9/2to9/3" to="10/4to10/5" departLane="best" departSpeed="max" departPos="random_free"/>
    <trip id="9" depart="9.00" from="3/7to3/6" to="7/9to6/9" departLane="best" departSpeed="max" departPos="random_free"/>
    <trip id="10" depart="10.00" from="0/5to0/6" to="3/0to3/1" departLane="best" departSpeed="max" departPos="random_free"/>
    <trip id="11" depart="11.00" from="1/7to0/7" to="8/9to8/8" departLane="best" departSpeed="max" departPos="random_free"/>
    <trip id="12" depart="12.00" from="6/7to6/6" to="6/0to7/0" departLane="best" departSpeed="max" departPos="random_free"/>
    <trip id="13" depart="13.00" from="2/6to2/5" to="7/5to6/5" departLane="best" departSpeed="max" departPos="random_free"/>
    <trip id="14" depart="14.00" from="2/9to3/9" to="8/5to8/4" departLane="best" departSpeed="max" departPos="random_free"/>
    <trip id="15" depart="15.00" from="3/9to2/9" to="2/2to1/2" departLane="best" departSpeed="max" departPos="random_free"/>
    <trip id="16" depart="16.00" from="8/8to8/9" to="2/1to3/1" departLane="best" departSpeed="max" departPos="random_free"/>
    <trip id="17" depart="17.00" from="4/7to4/6" to="6/5to6/6" departLane="best" departSpeed="max" departPos="random_free"/>
    <trip id="18" depart="18.00" from="8/4to7/4" to="7/1to7/0" departLane="best" departSpeed="max" departPos="random_free"/>
    <trip id="19" depart="19.00" from="8/3to7/3" to="7/7to8/7" departLane="best" departSpeed="max" departPos="random_free"/>
    <trip id="20" depart="20.00" from="6/9to6/8" to="6/8to5/8" departLane="best" departSpeed="max" departPos="random_free"/>
    <trip id="21" depart="21.00" from="1/7to2/7" to="0/0to1/0" departLane="best" departSpeed="max" departPos="random_free"/>
    <trip id="22" depart="22.00" from="10/1to10/2" to="0/6to0/7" departLane="best" departSpeed="max" departPos="random_free"/>
    <trip id="23" depart="23.00" from="3/6to3/5" to="3/4to2/4" departLane="best" departSpeed="max" departPos="random_free"/>
    <trip id="24" depart="24.00" from="9/4to10/4" to="4/7to5/7" departLane="best" departSpeed="max" departPos="random_free"/>
    <trip id="25" depart="25.00" from="8/6to7/6" to="7/3to8/3" departLane="best" departSpeed="max" departPos="random_free"/>
    <trip id="26" depart="26.00" from="1/10to1/9" to="4/7to5/7" departLane="best" departSpeed="max" departPos="random_free"/>
    <trip id="27" depart="27.00" from="2/10to2/9" to="1/7to0/7" departLane="best" departSpeed="max" departPos="random_free"/>
</routes>
