<?xml version="1.0" encoding="UTF-8"?>
<!-- generated on 2018-05-03 17:13:07.413774 by $Id$
  options: -n mapgrid.net.xml -e 28 -l <doubleminus>trip-attributes=departLane="best" departSpeed="max" departPos="random_free" -o trips.trips.xml
-->
<routes xmlns:xsi="http://www.w3.org/2001/XMLSchema-instance" xsi:noNamespaceSchemaLocation="http://sumo.dlr.de/xsd/routes_file.xsd">
    <trip id="0" depart="0.00" from="-422082715#0" to="156261356#2" departLane="best" departSpeed="max" departPos="random_free"/>
    <trip id="1" depart="1.00" from="303948421#1" to="28410277#2" departLane="best" departSpeed="max" departPos="random_free"/>
    <trip id="2" depart="2.00" from="156261502#6" to="367938203" departLane="best" departSpeed="max" departPos="random_free"/>
    <trip id="3" depart="3.00" from="353154171#0" to="-156261190" departLane="best" departSpeed="max" departPos="random_free"/>
    <trip id="4" depart="4.00" from="-317197954#2" to="286011720#2" departLane="best" departSpeed="max" departPos="random_free"/>
    <trip id="5" depart="5.00" from="-450298094" to="303948410" departLane="best" departSpeed="max" departPos="random_free"/>
    <trip id="6" depart="6.00" from="-156261342#0" to="156261342#0" departLane="best" departSpeed="max" departPos="random_free"/>
    <trip id="7" depart="7.00" from="-367619846#2" to="303948424" departLane="best" departSpeed="max" departPos="random_free"/>
    <trip id="8" depart="8.00" from="156261351#0" to="303948361#0" departLane="best" departSpeed="max" departPos="random_free"/>
    <trip id="9" depart="9.00" from="369538882#0" to="284980115#2" departLane="best" departSpeed="max" departPos="random_free"/>
    <trip id="10" depart="10.00" from="156261239" to="36048880#1" departLane="best" departSpeed="max" departPos="random_free"/>
    <trip id="11" depart="11.00" from="367619835#1" to="222799177" departLane="best" departSpeed="max" departPos="random_free"/>
    <trip id="12" depart="12.00" from="156261251" to="156261251" departLane="best" departSpeed="max" departPos="random_free"/>
    <trip id="13" depart="13.00" from="-156261356#3" to="317197954#5" departLane="best" departSpeed="max" departPos="random_free"/>
    <trip id="14" depart="14.00" from="303948410" to="353154181" departLane="best" departSpeed="max" departPos="random_free"/>
    <trip id="15" depart="15.00" from="-422082717#0" to="156261502#2" departLane="best" departSpeed="max" departPos="random_free"/>
    <trip id="16" depart="16.00" from="-367938218" to="156261495#2" departLane="best" departSpeed="max" departPos="random_free"/>
    <trip id="17" depart="17.00" from="-156261263" to="156261609" departLane="best" departSpeed="max" departPos="random_free"/>
    <trip id="18" depart="18.00" from="307395967#0" to="156261263" departLane="best" departSpeed="max" departPos="random_free"/>
    <trip id="19" depart="19.00" from="-455032297" to="-156261299#1" departLane="best" departSpeed="max" departPos="random_free"/>
    <trip id="20" depart="20.00" from="-450298078" to="-367619842" departLane="best" departSpeed="max" departPos="random_free"/>
    <trip id="21" depart="21.00" from="156261502#4" to="286011720#7" departLane="best" departSpeed="max" departPos="random_free"/>
    <trip id="22" depart="22.00" from="-156261228" to="450298092" departLane="best" departSpeed="max" departPos="random_free"/>
    <trip id="23" depart="23.00" from="367938203" to="-156261279" departLane="best" departSpeed="max" departPos="random_free"/>
    <trip id="24" depart="24.00" from="156261312#1" to="156261228" departLane="best" departSpeed="max" departPos="random_free"/>
    <trip id="25" depart="25.00" from="-156261445" to="-455032297" departLane="best" departSpeed="max" departPos="random_free"/>
    <trip id="26" depart="26.00" from="222799177" to="-156261502#3" departLane="best" departSpeed="max" departPos="random_free"/>
    <trip id="27" depart="27.00" from="-303948346#1" to="450298086" departLane="best" departSpeed="max" departPos="random_free"/>
</routes>
