<?xml version="1.0" encoding="UTF-8"?>
<!-- generated on 2018-05-03 22:46:10.942961 by $Id$
  options: -n mapgrid.net.xml -e 28 -l <doubleminus>trip-attributes=departLane="best" departSpeed="max" departPos="random_free" -o trips.trips.xml
-->
<routes xmlns:xsi="http://www.w3.org/2001/XMLSchema-instance" xsi:noNamespaceSchemaLocation="http://sumo.dlr.de/xsd/routes_file.xsd">
    <trip id="0" depart="0.00" from="10/2to9/2" to="3/3to4/3" departLane="best" departSpeed="max" departPos="random_free"/>
    <trip id="1" depart="1.00" from="8/0to8/1" to="5/9to6/9" departLane="best" departSpeed="max" departPos="random_free"/>
    <trip id="2" depart="2.00" from="3/4to2/4" to="7/1to6/1" departLane="best" departSpeed="max" departPos="random_free"/>
    <trip id="3" depart="3.00" from="9/3to10/3" to="3/10to3/9" departLane="best" departSpeed="max" departPos="random_free"/>
    <trip id="4" depart="4.00" from="1/9to0/9" to="6/2to5/2" departLane="best" departSpeed="max" departPos="random_free"/>
    <trip id="5" depart="5.00" from="7/10to8/10" to="2/6to3/6" departLane="best" departSpeed="max" departPos="random_free"/>
    <trip id="6" depart="6.00" from="1/3to1/2" to="3/4to3/5" departLane="best" departSpeed="max" departPos="random_free"/>
    <trip id="7" depart="7.00" from="6/7to7/7" to="3/2to4/2" departLane="best" departSpeed="max" departPos="random_free"/>
    <trip id="8" depart="8.00" from="5/5to5/4" to="3/10to3/9" departLane="best" departSpeed="max" departPos="random_free"/>
    <trip id="9" depart="9.00" from="4/4to4/5" to="10/5to9/5" departLane="best" departSpeed="max" departPos="random_free"/>
    <trip id="10" depart="10.00" from="3/4to3/3" to="5/8to6/8" departLane="best" departSpeed="max" departPos="random_free"/>
    <trip id="11" depart="11.00" from="8/4to7/4" to="6/10to7/10" departLane="best" departSpeed="max" departPos="random_free"/>
    <trip id="12" depart="12.00" from="1/2to1/3" to="7/6to6/6" departLane="best" departSpeed="max" departPos="random_free"/>
    <trip id="13" depart="13.00" from="0/8to1/8" to="2/2to2/1" departLane="best" departSpeed="max" departPos="random_free"/>
    <trip id="14" depart="14.00" from="0/4to0/5" to="1/8to1/7" departLane="best" departSpeed="max" departPos="random_free"/>
    <trip id="15" depart="15.00" from="5/6to4/6" to="2/10to2/9" departLane="best" departSpeed="max" departPos="random_free"/>
    <trip id="16" depart="16.00" from="4/6to5/6" to="8/3to8/2" departLane="best" departSpeed="max" departPos="random_free"/>
    <trip id="17" depart="17.00" from="1/7to1/6" to="2/10to1/10" departLane="best" departSpeed="max" departPos="random_free"/>
    <trip id="18" depart="18.00" from="8/3to7/3" to="1/9to1/8" departLane="best" departSpeed="max" departPos="random_free"/>
    <trip id="19" depart="19.00" from="3/0to3/1" to="3/4to4/4" departLane="best" departSpeed="max" departPos="random_free"/>
    <trip id="20" depart="20.00" from="3/4to3/5" to="3/5to3/4" departLane="best" departSpeed="max" departPos="random_free"/>
    <trip id="21" depart="21.00" from="0/5to1/5" to="4/2to4/1" departLane="best" departSpeed="max" departPos="random_free"/>
    <trip id="22" depart="22.00" from="8/3to9/3" to="4/0to3/0" departLane="best" departSpeed="max" departPos="random_free"/>
    <trip id="23" depart="23.00" from="5/8to6/8" to="1/2to0/2" departLane="best" departSpeed="max" departPos="random_free"/>
    <trip id="24" depart="24.00" from="3/8to2/8" to="1/4to2/4" departLane="best" departSpeed="max" departPos="random_free"/>
    <trip id="25" depart="25.00" from="3/1to2/1" to="9/5to9/4" departLane="best" departSpeed="max" departPos="random_free"/>
    <trip id="26" depart="26.00" from="9/10to10/10" to="6/4to6/5" departLane="best" departSpeed="max" departPos="random_free"/>
    <trip id="27" depart="27.00" from="4/4to3/4" to="9/5to9/6" departLane="best" departSpeed="max" departPos="random_free"/>
</routes>
