<?xml version="1.0" encoding="UTF-8"?>
<!-- generated on 2018-05-06 14:07:00.415265 by $Id$
  options: -n mapgrid.net.xml -e 38 -l <doubleminus>trip-attributes=departLane="best" departSpeed="max" departPos="random_free" -o trips.trips.xml
-->
<routes xmlns:xsi="http://www.w3.org/2001/XMLSchema-instance" xsi:noNamespaceSchemaLocation="http://sumo.dlr.de/xsd/routes_file.xsd">
    <trip id="0" depart="0.00" from="303948405#1" to="156261356#1" departLane="best" departSpeed="max" departPos="random_free"/>
    <trip id="1" depart="1.00" from="-418865870#0" to="-303948346#0" departLane="best" departSpeed="max" departPos="random_free"/>
    <trip id="2" depart="2.00" from="156261168" to="455032297" departLane="best" departSpeed="max" departPos="random_free"/>
    <trip id="3" depart="3.00" from="-303948413" to="-367938203" departLane="best" departSpeed="max" departPos="random_free"/>
    <trip id="4" depart="4.00" from="303948410" to="-303948405#1" departLane="best" departSpeed="max" departPos="random_free"/>
    <trip id="5" depart="5.00" from="451286570" to="-156261312#0" departLane="best" departSpeed="max" departPos="random_free"/>
    <trip id="6" depart="6.00" from="156261243" to="376918047" departLane="best" departSpeed="max" departPos="random_free"/>
    <trip id="7" depart="7.00" from="156261356#0" to="284980115#4" departLane="best" departSpeed="max" departPos="random_free"/>
    <trip id="8" depart="8.00" from="-422082717#1" to="361247463#1" departLane="best" departSpeed="max" departPos="random_free"/>
    <trip id="9" depart="9.00" from="303948407" to="285027169" departLane="best" departSpeed="max" departPos="random_free"/>
    <trip id="10" depart="10.00" from="-317197954#5" to="303948412#1" departLane="best" departSpeed="max" departPos="random_free"/>
    <trip id="11" depart="11.00" from="156261502#6" to="-422082728#3" departLane="best" departSpeed="max" departPos="random_free"/>
    <trip id="12" depart="12.00" from="-422082728#5" to="349836653" departLane="best" departSpeed="max" departPos="random_free"/>
    <trip id="13" depart="13.00" from="422082701#1" to="-28410277#7" departLane="best" departSpeed="max" departPos="random_free"/>
    <trip id="14" depart="14.00" from="450298088#1" to="36054622#0" departLane="best" departSpeed="max" departPos="random_free"/>
    <trip id="15" depart="15.00" from="-36048880#1" to="286011720#2" departLane="best" departSpeed="max" departPos="random_free"/>
    <trip id="16" depart="16.00" from="367619842" to="-303948410" departLane="best" departSpeed="max" departPos="random_free"/>
    <trip id="17" depart="17.00" from="-418865870#0" to="285027168#1" departLane="best" departSpeed="max" departPos="random_free"/>
    <trip id="18" depart="18.00" from="-156261263" to="36048880#1" departLane="best" departSpeed="max" departPos="random_free"/>
    <trip id="19" depart="19.00" from="284980115#5" to="-422082668" departLane="best" departSpeed="max" departPos="random_free"/>
    <trip id="20" depart="20.00" from="317197954#3" to="156261609" departLane="best" departSpeed="max" departPos="random_free"/>
    <trip id="21" depart="21.00" from="156261228" to="-450525271" departLane="best" departSpeed="max" departPos="random_free"/>
    <trip id="22" depart="22.00" from="303948361#1" to="286011720#3" departLane="best" departSpeed="max" departPos="random_free"/>
    <trip id="23" depart="23.00" from="156261488" to="-156261263" departLane="best" departSpeed="max" departPos="random_free"/>
    <trip id="24" depart="24.00" from="-303948421#1" to="307395964" departLane="best" departSpeed="max" departPos="random_free"/>
    <trip id="25" depart="25.00" from="-156261263" to="303948424" departLane="best" departSpeed="max" departPos="random_free"/>
    <trip id="26" depart="26.00" from="36048880#1" to="317197954#4" departLane="best" departSpeed="max" departPos="random_free"/>
    <trip id="27" depart="27.00" from="-156261190" to="369538883#1" departLane="best" departSpeed="max" departPos="random_free"/>
    <trip id="28" depart="28.00" from="369538887#3" to="-422082701#1" departLane="best" departSpeed="max" departPos="random_free"/>
    <trip id="29" depart="29.00" from="284980115#1" to="-119109424" departLane="best" departSpeed="max" departPos="random_free"/>
    <trip id="30" depart="30.00" from="450298097" to="-353154181" departLane="best" departSpeed="max" departPos="random_free"/>
    <trip id="31" depart="31.00" from="-361247463#1" to="-303948346#1" departLane="best" departSpeed="max" departPos="random_free"/>
    <trip id="32" depart="32.00" from="156261445" to="450525268" departLane="best" departSpeed="max" departPos="random_free"/>
    <trip id="33" depart="33.00" from="119109423#0" to="353154181" departLane="best" departSpeed="max" departPos="random_free"/>
    <trip id="34" depart="34.00" from="-156261488" to="156261351#1" departLane="best" departSpeed="max" departPos="random_free"/>
    <trip id="35" depart="35.00" from="369538887#3" to="-367619842" departLane="best" departSpeed="max" departPos="random_free"/>
    <trip id="36" depart="36.00" from="369538882#0" to="156261299#1" departLane="best" departSpeed="max" departPos="random_free"/>
    <trip id="37" depart="37.00" from="-353154171#2" to="156261488" departLane="best" departSpeed="max" departPos="random_free"/>
</routes>
