<?xml version="1.0" encoding="UTF-8"?>
<!-- generated on 2018-05-03 14:19:09.588414 by $Id$
  options: -n mapgrid.net.xml -e 28 -l <doubleminus>trip-attributes=departLane="best" departSpeed="max" departPos="random_free" -o trips.trips.xml
-->
<routes xmlns:xsi="http://www.w3.org/2001/XMLSchema-instance" xsi:noNamespaceSchemaLocation="http://sumo.dlr.de/xsd/routes_file.xsd">
    <trip id="0" depart="0.00" from="-156261312#0" to="-308511912" departLane="best" departSpeed="max" departPos="random_free"/>
    <trip id="1" depart="1.00" from="-303948430" to="369538879" departLane="best" departSpeed="max" departPos="random_free"/>
    <trip id="2" depart="2.00" from="-303948410" to="156261356#3" departLane="best" departSpeed="max" departPos="random_free"/>
    <trip id="3" depart="3.00" from="-450298097" to="-353154174#0" departLane="best" departSpeed="max" departPos="random_free"/>
    <trip id="4" depart="4.00" from="-156261445" to="-449480717#0" departLane="best" departSpeed="max" departPos="random_free"/>
    <trip id="5" depart="5.00" from="284980115#1" to="-156261523" departLane="best" departSpeed="max" departPos="random_free"/>
    <trip id="6" depart="6.00" from="-367938203" to="455032297" departLane="best" departSpeed="max" departPos="random_free"/>
    <trip id="7" depart="7.00" from="448270577" to="-156261263" departLane="best" departSpeed="max" departPos="random_free"/>
    <trip id="8" depart="8.00" from="369538883#2" to="-353154171#1" departLane="best" departSpeed="max" departPos="random_free"/>
    <trip id="9" depart="9.00" from="-28410277#1" to="-422082677" departLane="best" departSpeed="max" departPos="random_free"/>
    <trip id="10" depart="10.00" from="156261299#1" to="-156261190" departLane="best" departSpeed="max" departPos="random_free"/>
    <trip id="11" depart="11.00" from="376918047" to="-156261310#0" departLane="best" departSpeed="max" departPos="random_free"/>
    <trip id="12" depart="12.00" from="317197955" to="307395967#0" departLane="best" departSpeed="max" departPos="random_free"/>
    <trip id="13" depart="13.00" from="-367938218" to="-317197954#0" departLane="best" departSpeed="max" departPos="random_free"/>
    <trip id="14" depart="14.00" from="156261312#1" to="-451286564" departLane="best" departSpeed="max" departPos="random_free"/>
    <trip id="15" depart="15.00" from="353154171#0" to="-450525270#0" departLane="best" departSpeed="max" departPos="random_free"/>
    <trip id="16" depart="16.00" from="-156261502#6" to="-156261310#0" departLane="best" departSpeed="max" departPos="random_free"/>
    <trip id="17" depart="17.00" from="156261225" to="369538882#0" departLane="best" departSpeed="max" departPos="random_free"/>
    <trip id="18" depart="18.00" from="448270567#7" to="-422082717#1" departLane="best" departSpeed="max" departPos="random_free"/>
    <trip id="19" depart="19.00" from="-156261488" to="317197954#2" departLane="best" departSpeed="max" departPos="random_free"/>
    <trip id="20" depart="20.00" from="156261312#1" to="450525270#0" departLane="best" departSpeed="max" departPos="random_free"/>
    <trip id="21" depart="21.00" from="-303948421#1" to="-156261445" departLane="best" departSpeed="max" departPos="random_free"/>
    <trip id="22" depart="22.00" from="-303948421#0" to="-156261502#5" departLane="best" departSpeed="max" departPos="random_free"/>
    <trip id="23" depart="23.00" from="369538887#3" to="-367619846#1" departLane="best" departSpeed="max" departPos="random_free"/>
    <trip id="24" depart="24.00" from="369538887#3" to="285027167" departLane="best" departSpeed="max" departPos="random_free"/>
    <trip id="25" depart="25.00" from="307395963#1" to="-28410233#1" departLane="best" departSpeed="max" departPos="random_free"/>
    <trip id="26" depart="26.00" from="448270567#2" to="-317197954#4" departLane="best" departSpeed="max" departPos="random_free"/>
    <trip id="27" depart="27.00" from="450298080" to="-450525271" departLane="best" departSpeed="max" departPos="random_free"/>
</routes>
