<?xml version="1.0" encoding="UTF-8"?>
<!-- generated on 2018-04-06 23:27:16.995065 by $Id$
  options: -n mapgrid.net.xml -e 28 -l <doubleminus>trip-attributes=departLane="best" departSpeed="max" departPos="random_free" -o trips.trips.xml
-->
<routes xmlns:xsi="http://www.w3.org/2001/XMLSchema-instance" xsi:noNamespaceSchemaLocation="http://sumo.dlr.de/xsd/routes_file.xsd">
    <trip id="0" depart="0.00" from="8/6to8/5" to="0/8to0/9" departLane="best" departSpeed="max" departPos="random_free"/>
    <trip id="1" depart="1.00" from="10/2to10/3" to="3/3to3/4" departLane="best" departSpeed="max" departPos="random_free"/>
    <trip id="2" depart="2.00" from="2/7to2/6" to="10/1to10/0" departLane="best" departSpeed="max" departPos="random_free"/>
    <trip id="3" depart="3.00" from="1/5to1/6" to="4/0to5/0" departLane="best" departSpeed="max" departPos="random_free"/>
    <trip id="4" depart="4.00" from="2/9to2/8" to="6/10to5/10" departLane="best" departSpeed="max" departPos="random_free"/>
    <trip id="5" depart="5.00" from="1/3to2/3" to="8/0to8/1" departLane="best" departSpeed="max" departPos="random_free"/>
    <trip id="6" depart="6.00" from="6/1to7/1" to="3/3to4/3" departLane="best" departSpeed="max" departPos="random_free"/>
    <trip id="7" depart="7.00" from="1/10to2/10" to="1/3to0/3" departLane="best" departSpeed="max" departPos="random_free"/>
    <trip id="8" depart="8.00" from="4/10to3/10" to="4/10to5/10" departLane="best" departSpeed="max" departPos="random_free"/>
    <trip id="9" depart="9.00" from="2/4to2/3" to="4/4to4/5" departLane="best" departSpeed="max" departPos="random_free"/>
    <trip id="10" depart="10.00" from="7/0to6/0" to="7/0to8/0" departLane="best" departSpeed="max" departPos="random_free"/>
    <trip id="11" depart="11.00" from="9/2to9/1" to="7/1to8/1" departLane="best" departSpeed="max" departPos="random_free"/>
    <trip id="12" depart="12.00" from="10/3to10/2" to="9/6to9/7" departLane="best" departSpeed="max" departPos="random_free"/>
    <trip id="13" depart="13.00" from="9/9to9/8" to="8/10to7/10" departLane="best" departSpeed="max" departPos="random_free"/>
    <trip id="14" depart="14.00" from="5/5to4/5" to="8/6to9/6" departLane="best" departSpeed="max" departPos="random_free"/>
    <trip id="15" depart="15.00" from="1/0to1/1" to="0/6to1/6" departLane="best" departSpeed="max" departPos="random_free"/>
    <trip id="16" depart="16.00" from="3/9to4/9" to="8/7to8/6" departLane="best" departSpeed="max" departPos="random_free"/>
    <trip id="17" depart="17.00" from="0/9to0/10" to="6/8to7/8" departLane="best" departSpeed="max" departPos="random_free"/>
    <trip id="18" depart="18.00" from="8/5to9/5" to="6/2to6/1" departLane="best" departSpeed="max" departPos="random_free"/>
    <trip id="19" depart="19.00" from="6/1to6/0" to="1/5to0/5" departLane="best" departSpeed="max" departPos="random_free"/>
    <trip id="20" depart="20.00" from="2/9to2/10" to="4/5to4/6" departLane="best" departSpeed="max" departPos="random_free"/>
    <trip id="21" depart="21.00" from="8/8to8/7" to="5/7to5/8" departLane="best" departSpeed="max" departPos="random_free"/>
    <trip id="22" depart="22.00" from="8/6to9/6" to="5/10to6/10" departLane="best" departSpeed="max" departPos="random_free"/>
    <trip id="23" depart="23.00" from="0/1to0/0" to="2/1to2/0" departLane="best" departSpeed="max" departPos="random_free"/>
    <trip id="24" depart="24.00" from="3/5to4/5" to="4/5to4/6" departLane="best" departSpeed="max" departPos="random_free"/>
    <trip id="25" depart="25.00" from="6/5to6/4" to="2/2to3/2" departLane="best" departSpeed="max" departPos="random_free"/>
    <trip id="26" depart="26.00" from="7/0to6/0" to="6/9to6/8" departLane="best" departSpeed="max" departPos="random_free"/>
    <trip id="27" depart="27.00" from="1/8to2/8" to="3/3to3/2" departLane="best" departSpeed="max" departPos="random_free"/>
</routes>
