<?xml version="1.0" encoding="UTF-8"?>
<!-- generated on 2018-04-06 23:35:33.828231 by $Id$
  options: -n mapgrid.net.xml -e 28 -l <doubleminus>trip-attributes=departLane="best" departSpeed="max" departPos="random_free" -o trips.trips.xml
-->
<routes xmlns:xsi="http://www.w3.org/2001/XMLSchema-instance" xsi:noNamespaceSchemaLocation="http://sumo.dlr.de/xsd/routes_file.xsd">
    <trip id="0" depart="0.00" from="5/2to5/3" to="2/2to3/2" departLane="best" departSpeed="max" departPos="random_free"/>
    <trip id="1" depart="1.00" from="1/6to1/5" to="2/4to1/4" departLane="best" departSpeed="max" departPos="random_free"/>
    <trip id="2" depart="2.00" from="0/0to1/0" to="7/8to8/8" departLane="best" departSpeed="max" departPos="random_free"/>
    <trip id="3" depart="3.00" from="7/4to6/4" to="10/9to10/10" departLane="best" departSpeed="max" departPos="random_free"/>
    <trip id="4" depart="4.00" from="2/7to2/8" to="6/2to6/3" departLane="best" departSpeed="max" departPos="random_free"/>
    <trip id="5" depart="5.00" from="8/10to8/9" to="10/3to10/2" departLane="best" departSpeed="max" departPos="random_free"/>
    <trip id="6" depart="6.00" from="8/5to8/6" to="3/8to3/7" departLane="best" departSpeed="max" departPos="random_free"/>
    <trip id="7" depart="7.00" from="7/10to7/9" to="10/8to10/7" departLane="best" departSpeed="max" departPos="random_free"/>
    <trip id="8" depart="8.00" from="2/2to2/1" to="2/3to2/2" departLane="best" departSpeed="max" departPos="random_free"/>
    <trip id="9" depart="9.00" from="3/5to4/5" to="0/5to1/5" departLane="best" departSpeed="max" departPos="random_free"/>
    <trip id="10" depart="10.00" from="7/8to6/8" to="3/7to2/7" departLane="best" departSpeed="max" departPos="random_free"/>
    <trip id="11" depart="11.00" from="2/2to2/1" to="3/3to3/4" departLane="best" departSpeed="max" departPos="random_free"/>
    <trip id="12" depart="12.00" from="7/0to6/0" to="9/7to9/6" departLane="best" departSpeed="max" departPos="random_free"/>
    <trip id="13" depart="13.00" from="5/5to4/5" to="5/6to6/6" departLane="best" departSpeed="max" departPos="random_free"/>
    <trip id="14" depart="14.00" from="4/5to4/4" to="5/0to5/1" departLane="best" departSpeed="max" departPos="random_free"/>
    <trip id="15" depart="15.00" from="3/8to3/7" to="5/0to6/0" departLane="best" departSpeed="max" departPos="random_free"/>
    <trip id="16" depart="16.00" from="2/6to1/6" to="8/9to8/10" departLane="best" departSpeed="max" departPos="random_free"/>
    <trip id="17" depart="17.00" from="1/5to2/5" to="0/7to0/8" departLane="best" departSpeed="max" departPos="random_free"/>
    <trip id="18" depart="18.00" from="8/1to7/1" to="4/8to4/9" departLane="best" departSpeed="max" departPos="random_free"/>
    <trip id="19" depart="19.00" from="7/6to8/6" to="9/4to9/5" departLane="best" departSpeed="max" departPos="random_free"/>
    <trip id="20" depart="20.00" from="2/7to2/8" to="6/9to5/9" departLane="best" departSpeed="max" departPos="random_free"/>
    <trip id="21" depart="21.00" from="2/10to2/9" to="2/5to3/5" departLane="best" departSpeed="max" departPos="random_free"/>
    <trip id="22" depart="22.00" from="6/2to6/1" to="4/9to3/9" departLane="best" departSpeed="max" departPos="random_free"/>
    <trip id="23" depart="23.00" from="7/10to8/10" to="6/8to6/9" departLane="best" departSpeed="max" departPos="random_free"/>
    <trip id="24" depart="24.00" from="10/7to10/8" to="5/0to4/0" departLane="best" departSpeed="max" departPos="random_free"/>
    <trip id="25" depart="25.00" from="2/5to2/4" to="2/7to2/8" departLane="best" departSpeed="max" departPos="random_free"/>
    <trip id="26" depart="26.00" from="8/4to8/3" to="9/8to9/7" departLane="best" departSpeed="max" departPos="random_free"/>
    <trip id="27" depart="27.00" from="5/6to6/6" to="2/5to3/5" departLane="best" departSpeed="max" departPos="random_free"/>
</routes>
