<?xml version="1.0" encoding="UTF-8"?>
<!-- generated on 2018-04-08 17:16:49.661112 by $Id$
  options: -n mapgrid.net.xml -e 28 -l <doubleminus>trip-attributes=departLane="best" departSpeed="max" departPos="random_free" -o trips.trips.xml
-->
<routes xmlns:xsi="http://www.w3.org/2001/XMLSchema-instance" xsi:noNamespaceSchemaLocation="http://sumo.dlr.de/xsd/routes_file.xsd">
    <trip id="0" depart="0.00" from="3/8to3/9" to="10/0to9/0" departLane="best" departSpeed="max" departPos="random_free"/>
    <trip id="1" depart="1.00" from="3/1to2/1" to="8/3to8/4" departLane="best" departSpeed="max" departPos="random_free"/>
    <trip id="2" depart="2.00" from="4/0to4/1" to="0/5to1/5" departLane="best" departSpeed="max" departPos="random_free"/>
    <trip id="3" depart="3.00" from="7/0to7/1" to="3/6to2/6" departLane="best" departSpeed="max" departPos="random_free"/>
    <trip id="4" depart="4.00" from="6/1to7/1" to="3/3to3/4" departLane="best" departSpeed="max" departPos="random_free"/>
    <trip id="5" depart="5.00" from="1/1to0/1" to="3/9to3/8" departLane="best" departSpeed="max" departPos="random_free"/>
    <trip id="6" depart="6.00" from="5/3to5/2" to="9/2to9/1" departLane="best" departSpeed="max" departPos="random_free"/>
    <trip id="7" depart="7.00" from="5/3to4/3" to="9/4to9/5" departLane="best" departSpeed="max" departPos="random_free"/>
    <trip id="8" depart="8.00" from="9/0to9/1" to="8/9to8/8" departLane="best" departSpeed="max" departPos="random_free"/>
    <trip id="9" depart="9.00" from="9/2to8/2" to="2/1to2/2" departLane="best" departSpeed="max" departPos="random_free"/>
    <trip id="10" depart="10.00" from="10/7to10/6" to="1/8to1/9" departLane="best" departSpeed="max" departPos="random_free"/>
    <trip id="11" depart="11.00" from="1/2to2/2" to="6/9to6/10" departLane="best" departSpeed="max" departPos="random_free"/>
    <trip id="12" depart="12.00" from="10/6to9/6" to="9/2to9/1" departLane="best" departSpeed="max" departPos="random_free"/>
    <trip id="13" depart="13.00" from="8/1to8/2" to="4/5to4/4" departLane="best" departSpeed="max" departPos="random_free"/>
    <trip id="14" depart="14.00" from="1/2to1/1" to="10/3to10/4" departLane="best" departSpeed="max" departPos="random_free"/>
    <trip id="15" depart="15.00" from="2/6to3/6" to="3/4to3/5" departLane="best" departSpeed="max" departPos="random_free"/>
    <trip id="16" depart="16.00" from="9/2to9/3" to="0/7to0/6" departLane="best" departSpeed="max" departPos="random_free"/>
    <trip id="17" depart="17.00" from="1/0to0/0" to="1/4to1/5" departLane="best" departSpeed="max" departPos="random_free"/>
    <trip id="18" depart="18.00" from="2/6to2/7" to="8/10to8/9" departLane="best" departSpeed="max" departPos="random_free"/>
    <trip id="19" depart="19.00" from="5/4to6/4" to="9/3to8/3" departLane="best" departSpeed="max" departPos="random_free"/>
    <trip id="20" depart="20.00" from="5/6to4/6" to="8/10to7/10" departLane="best" departSpeed="max" departPos="random_free"/>
    <trip id="21" depart="21.00" from="4/2to3/2" to="4/8to3/8" departLane="best" departSpeed="max" departPos="random_free"/>
    <trip id="22" depart="22.00" from="1/4to1/5" to="9/2to10/2" departLane="best" departSpeed="max" departPos="random_free"/>
    <trip id="23" depart="23.00" from="2/4to2/5" to="10/7to10/6" departLane="best" departSpeed="max" departPos="random_free"/>
    <trip id="24" depart="24.00" from="2/9to3/9" to="9/4to8/4" departLane="best" departSpeed="max" departPos="random_free"/>
    <trip id="25" depart="25.00" from="2/7to2/8" to="2/1to2/2" departLane="best" departSpeed="max" departPos="random_free"/>
    <trip id="26" depart="26.00" from="7/4to6/4" to="3/0to3/1" departLane="best" departSpeed="max" departPos="random_free"/>
    <trip id="27" depart="27.00" from="8/4to8/3" to="5/4to4/4" departLane="best" departSpeed="max" departPos="random_free"/>
</routes>
