<?xml version="1.0" encoding="UTF-8"?>
<!-- generated on 2018-05-03 23:20:28.965721 by $Id$
  options: -n mapgrid.net.xml -e 28 -l <doubleminus>trip-attributes=departLane="best" departSpeed="max" departPos="random_free" -o trips.trips.xml
-->
<routes xmlns:xsi="http://www.w3.org/2001/XMLSchema-instance" xsi:noNamespaceSchemaLocation="http://sumo.dlr.de/xsd/routes_file.xsd">
    <trip id="0" depart="0.00" from="10/5to10/6" to="5/5to4/5" departLane="best" departSpeed="max" departPos="random_free"/>
    <trip id="1" depart="1.00" from="4/7to4/8" to="6/9to6/8" departLane="best" departSpeed="max" departPos="random_free"/>
    <trip id="2" depart="2.00" from="1/2to2/2" to="0/5to0/4" departLane="best" departSpeed="max" departPos="random_free"/>
    <trip id="3" depart="3.00" from="8/4to8/5" to="2/5to2/6" departLane="best" departSpeed="max" departPos="random_free"/>
    <trip id="4" depart="4.00" from="8/7to7/7" to="4/10to5/10" departLane="best" departSpeed="max" departPos="random_free"/>
    <trip id="5" depart="5.00" from="7/1to7/2" to="3/1to3/2" departLane="best" departSpeed="max" departPos="random_free"/>
    <trip id="6" depart="6.00" from="1/6to2/6" to="7/5to8/5" departLane="best" departSpeed="max" departPos="random_free"/>
    <trip id="7" depart="7.00" from="9/3to8/3" to="1/4to1/3" departLane="best" departSpeed="max" departPos="random_free"/>
    <trip id="8" depart="8.00" from="2/8to1/8" to="6/5to5/5" departLane="best" departSpeed="max" departPos="random_free"/>
    <trip id="9" depart="9.00" from="9/9to8/9" to="7/0to7/1" departLane="best" departSpeed="max" departPos="random_free"/>
    <trip id="10" depart="10.00" from="4/6to3/6" to="6/5to6/4" departLane="best" departSpeed="max" departPos="random_free"/>
    <trip id="11" depart="11.00" from="8/1to7/1" to="7/3to7/2" departLane="best" departSpeed="max" departPos="random_free"/>
    <trip id="12" depart="12.00" from="2/4to1/4" to="4/1to4/2" departLane="best" departSpeed="max" departPos="random_free"/>
    <trip id="13" depart="13.00" from="5/5to5/4" to="10/9to10/8" departLane="best" departSpeed="max" departPos="random_free"/>
    <trip id="14" depart="14.00" from="8/0to7/0" to="10/2to9/2" departLane="best" departSpeed="max" departPos="random_free"/>
    <trip id="15" depart="15.00" from="4/8to3/8" to="3/4to4/4" departLane="best" departSpeed="max" departPos="random_free"/>
    <trip id="16" depart="16.00" from="0/3to0/4" to="4/3to4/4" departLane="best" departSpeed="max" departPos="random_free"/>
    <trip id="17" depart="17.00" from="0/5to0/6" to="9/1to9/0" departLane="best" departSpeed="max" departPos="random_free"/>
    <trip id="18" depart="18.00" from="4/3to4/4" to="9/3to9/2" departLane="best" departSpeed="max" departPos="random_free"/>
    <trip id="19" depart="19.00" from="9/7to9/6" to="2/5to3/5" departLane="best" departSpeed="max" departPos="random_free"/>
    <trip id="20" depart="20.00" from="8/5to8/4" to="6/7to7/7" departLane="best" departSpeed="max" departPos="random_free"/>
    <trip id="21" depart="21.00" from="0/1to1/1" to="6/8to5/8" departLane="best" departSpeed="max" departPos="random_free"/>
    <trip id="22" depart="22.00" from="4/3to4/2" to="5/3to5/4" departLane="best" departSpeed="max" departPos="random_free"/>
    <trip id="23" depart="23.00" from="6/4to6/5" to="1/5to0/5" departLane="best" departSpeed="max" departPos="random_free"/>
    <trip id="24" depart="24.00" from="8/1to9/1" to="3/4to2/4" departLane="best" departSpeed="max" departPos="random_free"/>
    <trip id="25" depart="25.00" from="8/2to8/3" to="5/2to5/3" departLane="best" departSpeed="max" departPos="random_free"/>
    <trip id="26" depart="26.00" from="2/1to2/2" to="6/4to5/4" departLane="best" departSpeed="max" departPos="random_free"/>
    <trip id="27" depart="27.00" from="4/5to4/6" to="1/2to2/2" departLane="best" departSpeed="max" departPos="random_free"/>
</routes>
