<?xml version="1.0" encoding="UTF-8"?>
<!-- generated on 2018-04-06 23:20:45.532904 by $Id$
  options: -n mapgrid.net.xml -e 28 -l <doubleminus>trip-attributes=departLane="best" departSpeed="max" departPos="random_free" -o trips.trips.xml
-->
<routes xmlns:xsi="http://www.w3.org/2001/XMLSchema-instance" xsi:noNamespaceSchemaLocation="http://sumo.dlr.de/xsd/routes_file.xsd">
    <trip id="0" depart="0.00" from="9/5to10/5" to="2/5to2/6" departLane="best" departSpeed="max" departPos="random_free"/>
    <trip id="1" depart="1.00" from="3/9to4/9" to="8/4to8/3" departLane="best" departSpeed="max" departPos="random_free"/>
    <trip id="2" depart="2.00" from="6/8to6/9" to="3/8to3/7" departLane="best" departSpeed="max" departPos="random_free"/>
    <trip id="3" depart="3.00" from="3/6to3/7" to="0/3to0/2" departLane="best" departSpeed="max" departPos="random_free"/>
    <trip id="4" depart="4.00" from="8/5to8/4" to="4/8to3/8" departLane="best" departSpeed="max" departPos="random_free"/>
    <trip id="5" depart="5.00" from="8/2to7/2" to="10/7to9/7" departLane="best" departSpeed="max" departPos="random_free"/>
    <trip id="6" depart="6.00" from="1/2to0/2" to="8/2to8/1" departLane="best" departSpeed="max" departPos="random_free"/>
    <trip id="7" depart="7.00" from="7/1to8/1" to="3/1to3/2" departLane="best" departSpeed="max" departPos="random_free"/>
    <trip id="8" depart="8.00" from="10/6to10/7" to="9/6to10/6" departLane="best" departSpeed="max" departPos="random_free"/>
    <trip id="9" depart="9.00" from="6/6to6/7" to="4/9to4/8" departLane="best" departSpeed="max" departPos="random_free"/>
    <trip id="10" depart="10.00" from="6/1to6/2" to="5/7to5/6" departLane="best" departSpeed="max" departPos="random_free"/>
    <trip id="11" depart="11.00" from="5/9to4/9" to="5/10to4/10" departLane="best" departSpeed="max" departPos="random_free"/>
    <trip id="12" depart="12.00" from="4/6to4/5" to="8/8to9/8" departLane="best" departSpeed="max" departPos="random_free"/>
    <trip id="13" depart="13.00" from="5/4to5/5" to="9/3to8/3" departLane="best" departSpeed="max" departPos="random_free"/>
    <trip id="14" depart="14.00" from="5/5to6/5" to="6/1to6/0" departLane="best" departSpeed="max" departPos="random_free"/>
    <trip id="15" depart="15.00" from="0/1to1/1" to="7/7to8/7" departLane="best" departSpeed="max" departPos="random_free"/>
    <trip id="16" depart="16.00" from="7/4to7/5" to="3/4to3/5" departLane="best" departSpeed="max" departPos="random_free"/>
    <trip id="17" depart="17.00" from="9/8to8/8" to="4/10to5/10" departLane="best" departSpeed="max" departPos="random_free"/>
    <trip id="18" depart="18.00" from="6/7to6/8" to="2/2to3/2" departLane="best" departSpeed="max" departPos="random_free"/>
    <trip id="19" depart="19.00" from="10/9to9/9" to="7/6to7/5" departLane="best" departSpeed="max" departPos="random_free"/>
    <trip id="20" depart="20.00" from="8/3to9/3" to="6/2to6/1" departLane="best" departSpeed="max" departPos="random_free"/>
    <trip id="21" depart="21.00" from="6/7to5/7" to="10/3to9/3" departLane="best" departSpeed="max" departPos="random_free"/>
    <trip id="22" depart="22.00" from="9/1to10/1" to="6/9to6/10" departLane="best" departSpeed="max" departPos="random_free"/>
    <trip id="23" depart="23.00" from="7/4to7/3" to="8/7to7/7" departLane="best" departSpeed="max" departPos="random_free"/>
    <trip id="24" depart="24.00" from="10/2to9/2" to="2/0to1/0" departLane="best" departSpeed="max" departPos="random_free"/>
    <trip id="25" depart="25.00" from="8/3to8/4" to="8/5to9/5" departLane="best" departSpeed="max" departPos="random_free"/>
    <trip id="26" depart="26.00" from="3/8to3/9" to="1/5to2/5" departLane="best" departSpeed="max" departPos="random_free"/>
    <trip id="27" depart="27.00" from="3/7to3/8" to="10/0to10/1" departLane="best" departSpeed="max" departPos="random_free"/>
</routes>
