<?xml version="1.0" encoding="UTF-8"?>
<!-- generated on 2018-05-03 23:44:36.568235 by $Id$
  options: -n mapgrid.net.xml -e 28 -l <doubleminus>trip-attributes=departLane="best" departSpeed="max" departPos="random_free" -o trips.trips.xml
-->
<routes xmlns:xsi="http://www.w3.org/2001/XMLSchema-instance" xsi:noNamespaceSchemaLocation="http://sumo.dlr.de/xsd/routes_file.xsd">
    <trip id="0" depart="0.00" from="8/1to8/2" to="4/1to5/1" departLane="best" departSpeed="max" departPos="random_free"/>
    <trip id="1" depart="1.00" from="4/9to4/8" to="6/6to5/6" departLane="best" departSpeed="max" departPos="random_free"/>
    <trip id="2" depart="2.00" from="7/5to8/5" to="4/9to4/10" departLane="best" departSpeed="max" departPos="random_free"/>
    <trip id="3" depart="3.00" from="5/4to4/4" to="1/2to2/2" departLane="best" departSpeed="max" departPos="random_free"/>
    <trip id="4" depart="4.00" from="4/2to3/2" to="1/7to2/7" departLane="best" departSpeed="max" departPos="random_free"/>
    <trip id="5" depart="5.00" from="6/2to5/2" to="6/10to7/10" departLane="best" departSpeed="max" departPos="random_free"/>
    <trip id="6" depart="6.00" from="7/7to7/8" to="0/3to0/4" departLane="best" departSpeed="max" departPos="random_free"/>
    <trip id="7" depart="7.00" from="1/5to1/4" to="0/7to1/7" departLane="best" departSpeed="max" departPos="random_free"/>
    <trip id="8" depart="8.00" from="4/10to4/9" to="7/1to6/1" departLane="best" departSpeed="max" departPos="random_free"/>
    <trip id="9" depart="9.00" from="1/6to1/7" to="2/3to3/3" departLane="best" departSpeed="max" departPos="random_free"/>
    <trip id="10" depart="10.00" from="2/6to2/5" to="4/1to5/1" departLane="best" departSpeed="max" departPos="random_free"/>
    <trip id="11" depart="11.00" from="6/2to6/1" to="2/9to2/8" departLane="best" departSpeed="max" departPos="random_free"/>
    <trip id="12" depart="12.00" from="2/1to3/1" to="2/9to2/8" departLane="best" departSpeed="max" departPos="random_free"/>
    <trip id="13" depart="13.00" from="4/0to3/0" to="3/0to4/0" departLane="best" departSpeed="max" departPos="random_free"/>
    <trip id="14" depart="14.00" from="8/7to8/6" to="7/5to7/4" departLane="best" departSpeed="max" departPos="random_free"/>
    <trip id="15" depart="15.00" from="9/1to10/1" to="1/7to0/7" departLane="best" departSpeed="max" departPos="random_free"/>
    <trip id="16" depart="16.00" from="6/4to5/4" to="5/10to5/9" departLane="best" departSpeed="max" departPos="random_free"/>
    <trip id="17" depart="17.00" from="4/2to4/3" to="7/1to6/1" departLane="best" departSpeed="max" departPos="random_free"/>
    <trip id="18" depart="18.00" from="2/9to2/8" to="5/0to6/0" departLane="best" departSpeed="max" departPos="random_free"/>
    <trip id="19" depart="19.00" from="7/8to6/8" to="7/5to7/6" departLane="best" departSpeed="max" departPos="random_free"/>
    <trip id="20" depart="20.00" from="0/4to0/5" to="7/9to8/9" departLane="best" departSpeed="max" departPos="random_free"/>
    <trip id="21" depart="21.00" from="5/8to4/8" to="2/4to1/4" departLane="best" departSpeed="max" departPos="random_free"/>
    <trip id="22" depart="22.00" from="1/5to1/4" to="10/4to10/3" departLane="best" departSpeed="max" departPos="random_free"/>
    <trip id="23" depart="23.00" from="4/5to5/5" to="6/0to6/1" departLane="best" departSpeed="max" departPos="random_free"/>
    <trip id="24" depart="24.00" from="3/8to4/8" to="9/7to9/6" departLane="best" departSpeed="max" departPos="random_free"/>
    <trip id="25" depart="25.00" from="8/5to9/5" to="10/9to10/10" departLane="best" departSpeed="max" departPos="random_free"/>
    <trip id="26" depart="26.00" from="5/2to5/1" to="9/9to10/9" departLane="best" departSpeed="max" departPos="random_free"/>
    <trip id="27" depart="27.00" from="1/5to2/5" to="7/2to6/2" departLane="best" departSpeed="max" departPos="random_free"/>
</routes>
