<?xml version="1.0" encoding="UTF-8"?>
<!-- generated on 2018-05-02 15:39:11.223495 by $Id$
  options: -n mapgrid.net.xml -e 48 -l <doubleminus>trip-attributes=departLane="best" departSpeed="max" departPos="random_free" -o trips.trips.xml
-->
<routes xmlns:xsi="http://www.w3.org/2001/XMLSchema-instance" xsi:noNamespaceSchemaLocation="http://sumo.dlr.de/xsd/routes_file.xsd">
    <trip id="0" depart="0.00" from="307395967#1" to="-156261356#0" departLane="best" departSpeed="max" departPos="random_free"/>
    <trip id="1" depart="1.00" from="313526158" to="-353154171#2" departLane="best" departSpeed="max" departPos="random_free"/>
    <trip id="2" depart="2.00" from="-156261495#0" to="156261225" departLane="best" departSpeed="max" departPos="random_free"/>
    <trip id="3" depart="3.00" from="-156261310#1" to="-455032297" departLane="best" departSpeed="max" departPos="random_free"/>
    <trip id="4" depart="4.00" from="156261299#0" to="-28410233#0" departLane="best" departSpeed="max" departPos="random_free"/>
    <trip id="5" depart="5.00" from="422082717#1" to="-28410277#6" departLane="best" departSpeed="max" departPos="random_free"/>
    <trip id="6" depart="6.00" from="-450298097" to="-156261554" departLane="best" departSpeed="max" departPos="random_free"/>
    <trip id="7" depart="7.00" from="-156261263" to="451286570" departLane="best" departSpeed="max" departPos="random_free"/>
    <trip id="8" depart="8.00" from="156261445" to="-303948410" departLane="best" departSpeed="max" departPos="random_free"/>
    <trip id="9" depart="9.00" from="435177473" to="-367938218" departLane="best" departSpeed="max" departPos="random_free"/>
    <trip id="10" depart="10.00" from="-156261310#1" to="-317197954#3" departLane="best" departSpeed="max" departPos="random_free"/>
    <trip id="11" depart="11.00" from="-422082701#1" to="448270567#4" departLane="best" departSpeed="max" departPos="random_free"/>
    <trip id="12" depart="12.00" from="156261342#0" to="28356498#1" departLane="best" departSpeed="max" departPos="random_free"/>
    <trip id="13" depart="13.00" from="303948413" to="284980115#8" departLane="best" departSpeed="max" departPos="random_free"/>
    <trip id="14" depart="14.00" from="303948410" to="-156261613#2" departLane="best" departSpeed="max" departPos="random_free"/>
    <trip id="15" depart="15.00" from="308511913" to="450298078" departLane="best" departSpeed="max" departPos="random_free"/>
    <trip id="16" depart="16.00" from="28716610" to="156261495#1" departLane="best" departSpeed="max" departPos="random_free"/>
    <trip id="17" depart="17.00" from="156261488" to="369538883#3" departLane="best" departSpeed="max" departPos="random_free"/>
    <trip id="18" depart="18.00" from="422082695" to="-353154174#0" departLane="best" departSpeed="max" departPos="random_free"/>
    <trip id="19" depart="19.00" from="450298090#1" to="450525268" departLane="best" departSpeed="max" departPos="random_free"/>
    <trip id="20" depart="20.00" from="-156261263" to="-156261488" departLane="best" departSpeed="max" departPos="random_free"/>
    <trip id="21" depart="21.00" from="450298097" to="376918047" departLane="best" departSpeed="max" departPos="random_free"/>
    <trip id="22" depart="22.00" from="156261239" to="-367619833#0" departLane="best" departSpeed="max" departPos="random_free"/>
    <trip id="23" depart="23.00" from="-422082728#5" to="-119109423#0" departLane="best" departSpeed="max" departPos="random_free"/>
    <trip id="24" depart="24.00" from="450298097" to="422082717#0" departLane="best" departSpeed="max" departPos="random_free"/>
    <trip id="25" depart="25.00" from="-156261609" to="156261502#4" departLane="best" departSpeed="max" departPos="random_free"/>
    <trip id="26" depart="26.00" from="369538882#0" to="222799177" departLane="best" departSpeed="max" departPos="random_free"/>
    <trip id="27" depart="27.00" from="-303948421#1" to="-303948407" departLane="best" departSpeed="max" departPos="random_free"/>
    <trip id="28" depart="28.00" from="369538882#0" to="303948412#1" departLane="best" departSpeed="max" departPos="random_free"/>
    <trip id="29" depart="29.00" from="36048880#1" to="327728882#5" departLane="best" departSpeed="max" departPos="random_free"/>
    <trip id="30" depart="30.00" from="-353154174#1" to="353154174#1" departLane="best" departSpeed="max" departPos="random_free"/>
    <trip id="31" depart="31.00" from="-156261502#0" to="353154181" departLane="best" departSpeed="max" departPos="random_free"/>
    <trip id="32" depart="32.00" from="369538882#1" to="286011720#3" departLane="best" departSpeed="max" departPos="random_free"/>
    <trip id="33" depart="33.00" from="285027168#1" to="-449480717#1" departLane="best" departSpeed="max" departPos="random_free"/>
    <trip id="34" depart="34.00" from="418865870#1" to="156261251" departLane="best" departSpeed="max" departPos="random_free"/>
    <trip id="35" depart="35.00" from="-156261250" to="367938203" departLane="best" departSpeed="max" departPos="random_free"/>
    <trip id="36" depart="36.00" from="369538882#1" to="422082668" departLane="best" departSpeed="max" departPos="random_free"/>
    <trip id="37" depart="37.00" from="-326480147" to="156261194" departLane="best" departSpeed="max" departPos="random_free"/>
    <trip id="38" depart="38.00" from="-317197954#2" to="307395967#1" departLane="best" departSpeed="max" departPos="random_free"/>
    <trip id="39" depart="39.00" from="-156261502#1" to="156261613#2" departLane="best" departSpeed="max" departPos="random_free"/>
    <trip id="40" depart="40.00" from="369538883#3" to="-303948346#1" departLane="best" departSpeed="max" departPos="random_free"/>
    <trip id="41" depart="41.00" from="307395967#2" to="471698306#1" departLane="best" departSpeed="max" departPos="random_free"/>
    <trip id="42" depart="42.00" from="-303948410" to="317197955" departLane="best" departSpeed="max" departPos="random_free"/>
    <trip id="43" depart="43.00" from="-119109423#1" to="-28410277#7" departLane="best" departSpeed="max" departPos="random_free"/>
    <trip id="44" depart="44.00" from="367619833#0" to="-353154171#2" departLane="best" departSpeed="max" departPos="random_free"/>
    <trip id="45" depart="45.00" from="-156261356#3" to="-156261445" departLane="best" departSpeed="max" departPos="random_free"/>
    <trip id="46" depart="46.00" from="156261239" to="369538883#2" departLane="best" departSpeed="max" departPos="random_free"/>
    <trip id="47" depart="47.00" from="204363487" to="28410233#1" departLane="best" departSpeed="max" departPos="random_free"/>
</routes>
