<?xml version="1.0" encoding="UTF-8"?>

<!-- generated on Sat Dec  9 00:30:02 2017 by SUMO netgenerate Version 0.30.0
<?xml version="1.0" encoding="UTF-8"?>

<configuration xmlns:xsi="http://www.w3.org/2001/XMLSchema-instance" xsi:noNamespaceSchemaLocation="http://sumo.dlr.de/xsd/netgenerateConfiguration.xsd">

    <grid_network>
        <grid value="true"/>
        <grid.number value="5"/>
        <grid.length value="56"/>
    </grid_network>

    <output>
        <output-file value="mapgrid.net.xml"/>
    </output>

    <tls_building>
        <tls.guess value="true"/>
    </tls_building>

    <building_defaults>
        <default.speed value="25"/>
    </building_defaults>

    <report>
        <log value="allmessage.log"/>
    </report>

</configuration>
-->

<net version="0.27" xmlns:xsi="http://www.w3.org/2001/XMLSchema-instance" xsi:noNamespaceSchemaLocation="http://sumo.dlr.de/xsd/net_file.xsd">

    <location netOffset="0.00,0.00" convBoundary="0.00,0.00,224.00,224.00" origBoundary="0.00,0.00,224.00,224.00" projParameter="!"/>

    <edge id=":0/0_0" function="internal">
        <lane id=":0/0_0_0" index="0" speed="25.00" length="7.90" shape="-1.65,3.25 -1.34,1.11 -0.42,-0.42 1.11,-1.34 3.25,-1.65"/>
    </edge>
    <edge id=":0/0_1" function="internal">
        <lane id=":0/0_1_0" index="0" speed="25.00" length="2.80" shape="-1.65,3.25 -0.83,2.01 -0.00,1.60 0.35,1.77"/>
    </edge>
    <edge id=":0/0_4" function="internal">
        <lane id=":0/0_4_0" index="0" speed="25.00" length="2.02" shape="0.35,1.77 0.82,2.01 1.65,3.25"/>
    </edge>
    <edge id=":0/0_2" function="internal">
        <lane id=":0/0_2_0" index="0" speed="25.00" length="2.58" shape="3.25,1.65 2.55,1.75 2.05,2.05 1.75,2.55 1.65,3.25"/>
    </edge>
    <edge id=":0/0_3" function="internal">
        <lane id=":0/0_3_0" index="0" speed="25.00" length="2.20" shape="3.25,1.65 2.01,0.83 1.69,0.19"/>
    </edge>
    <edge id=":0/0_5" function="internal">
        <lane id=":0/0_5_0" index="0" speed="25.00" length="2.62" shape="1.69,0.19 1.60,0.00 2.01,-0.82 3.25,-1.65"/>
    </edge>
    <edge id=":0/1_0" function="internal">
        <lane id=":0/1_0_0" index="0" speed="25.00" length="9.50" shape="-1.65,60.75 -1.65,51.25"/>
    </edge>
    <edge id=":0/1_1" function="internal">
        <lane id=":0/1_1_0" index="0" speed="25.00" length="5.28" shape="-1.65,60.75 -1.25,57.95 -0.05,55.95 0.05,55.89"/>
    </edge>
    <edge id=":0/1_2" function="internal">
        <lane id=":0/1_2_0" index="0" speed="25.00" length="2.41" shape="-1.65,60.75 -0.83,59.51 -0.00,59.10"/>
    </edge>
    <edge id=":0/1_9" function="internal">
        <lane id=":0/1_9_0" index="0" speed="25.00" length="5.04" shape="0.05,55.89 1.95,54.75 4.75,54.35"/>
    </edge>
    <edge id=":0/1_10" function="internal">
        <lane id=":0/1_10_0" index="0" speed="25.00" length="2.41" shape="-0.00,59.10 0.82,59.51 1.65,60.75"/>
    </edge>
    <edge id=":0/1_3" function="internal">
        <lane id=":0/1_3_0" index="0" speed="25.00" length="5.00" shape="4.75,57.65 3.39,57.84 2.43,58.42 1.84,59.39 1.65,60.75"/>
    </edge>
    <edge id=":0/1_4" function="internal">
        <lane id=":0/1_4_0" index="0" speed="25.00" length="10.32" shape="4.75,57.65 1.95,57.25 -0.05,56.05 -1.25,54.05 -1.65,51.25"/>
    </edge>
    <edge id=":0/1_5" function="internal">
        <lane id=":0/1_5_0" index="0" speed="25.00" length="4.82" shape="4.75,57.65 3.51,56.83 3.10,56.00 3.51,55.18 4.75,54.35"/>
    </edge>
    <edge id=":0/1_6" function="internal">
        <lane id=":0/1_6_0" index="0" speed="25.00" length="5.00" shape="1.65,51.25 1.84,52.61 2.42,53.57 3.39,54.16 4.75,54.35"/>
    </edge>
    <edge id=":0/1_7" function="internal">
        <lane id=":0/1_7_0" index="0" speed="25.00" length="9.50" shape="1.65,51.25 1.65,60.75"/>
    </edge>
    <edge id=":0/1_8" function="internal">
        <lane id=":0/1_8_0" index="0" speed="25.00" length="2.41" shape="1.65,51.25 0.83,52.49 0.00,52.90"/>
    </edge>
    <edge id=":0/1_11" function="internal">
        <lane id=":0/1_11_0" index="0" speed="25.00" length="2.41" shape="0.00,52.90 -0.83,52.49 -1.65,51.25"/>
    </edge>
    <edge id=":0/2_0" function="internal">
        <lane id=":0/2_0_0" index="0" speed="25.00" length="9.50" shape="-1.65,116.75 -1.65,107.25"/>
    </edge>
    <edge id=":0/2_1" function="internal">
        <lane id=":0/2_1_0" index="0" speed="25.00" length="5.28" shape="-1.65,116.75 -1.25,113.95 -0.05,111.95 0.05,111.89"/>
    </edge>
    <edge id=":0/2_2" function="internal">
        <lane id=":0/2_2_0" index="0" speed="25.00" length="2.41" shape="-1.65,116.75 -0.83,115.51 -0.00,115.10"/>
    </edge>
    <edge id=":0/2_9" function="internal">
        <lane id=":0/2_9_0" index="0" speed="25.00" length="5.04" shape="0.05,111.89 1.95,110.75 4.75,110.35"/>
    </edge>
    <edge id=":0/2_10" function="internal">
        <lane id=":0/2_10_0" index="0" speed="25.00" length="2.41" shape="-0.00,115.10 0.82,115.51 1.65,116.75"/>
    </edge>
    <edge id=":0/2_3" function="internal">
        <lane id=":0/2_3_0" index="0" speed="25.00" length="5.00" shape="4.75,113.65 3.39,113.84 2.43,114.43 1.84,115.39 1.65,116.75"/>
    </edge>
    <edge id=":0/2_4" function="internal">
        <lane id=":0/2_4_0" index="0" speed="25.00" length="10.32" shape="4.75,113.65 1.95,113.25 -0.05,112.05 -1.25,110.05 -1.65,107.25"/>
    </edge>
    <edge id=":0/2_5" function="internal">
        <lane id=":0/2_5_0" index="0" speed="25.00" length="4.82" shape="4.75,113.65 3.51,112.83 3.10,112.00 3.51,111.18 4.75,110.35"/>
    </edge>
    <edge id=":0/2_6" function="internal">
        <lane id=":0/2_6_0" index="0" speed="25.00" length="5.00" shape="1.65,107.25 1.84,108.61 2.42,109.57 3.39,110.16 4.75,110.35"/>
    </edge>
    <edge id=":0/2_7" function="internal">
        <lane id=":0/2_7_0" index="0" speed="25.00" length="9.50" shape="1.65,107.25 1.65,116.75"/>
    </edge>
    <edge id=":0/2_8" function="internal">
        <lane id=":0/2_8_0" index="0" speed="25.00" length="2.41" shape="1.65,107.25 0.83,108.49 0.00,108.90"/>
    </edge>
    <edge id=":0/2_11" function="internal">
        <lane id=":0/2_11_0" index="0" speed="25.00" length="2.41" shape="0.00,108.90 -0.83,108.49 -1.65,107.25"/>
    </edge>
    <edge id=":0/3_0" function="internal">
        <lane id=":0/3_0_0" index="0" speed="25.00" length="9.50" shape="-1.65,172.75 -1.65,163.25"/>
    </edge>
    <edge id=":0/3_1" function="internal">
        <lane id=":0/3_1_0" index="0" speed="25.00" length="5.28" shape="-1.65,172.75 -1.25,169.95 -0.05,167.95 0.05,167.89"/>
    </edge>
    <edge id=":0/3_2" function="internal">
        <lane id=":0/3_2_0" index="0" speed="25.00" length="2.41" shape="-1.65,172.75 -0.83,171.51 0.00,171.10"/>
    </edge>
    <edge id=":0/3_9" function="internal">
        <lane id=":0/3_9_0" index="0" speed="25.00" length="5.04" shape="0.05,167.89 1.95,166.75 4.75,166.35"/>
    </edge>
    <edge id=":0/3_10" function="internal">
        <lane id=":0/3_10_0" index="0" speed="25.00" length="2.41" shape="0.00,171.10 0.83,171.51 1.65,172.75"/>
    </edge>
    <edge id=":0/3_3" function="internal">
        <lane id=":0/3_3_0" index="0" speed="25.00" length="5.00" shape="4.75,169.65 3.39,169.84 2.43,170.43 1.84,171.39 1.65,172.75"/>
    </edge>
    <edge id=":0/3_4" function="internal">
        <lane id=":0/3_4_0" index="0" speed="25.00" length="10.32" shape="4.75,169.65 1.95,169.25 -0.05,168.05 -1.25,166.05 -1.65,163.25"/>
    </edge>
    <edge id=":0/3_5" function="internal">
        <lane id=":0/3_5_0" index="0" speed="25.00" length="4.82" shape="4.75,169.65 3.51,168.83 3.10,168.00 3.51,167.18 4.75,166.35"/>
    </edge>
    <edge id=":0/3_6" function="internal">
        <lane id=":0/3_6_0" index="0" speed="25.00" length="5.00" shape="1.65,163.25 1.84,164.61 2.42,165.57 3.39,166.16 4.75,166.35"/>
    </edge>
    <edge id=":0/3_7" function="internal">
        <lane id=":0/3_7_0" index="0" speed="25.00" length="9.50" shape="1.65,163.25 1.65,172.75"/>
    </edge>
    <edge id=":0/3_8" function="internal">
        <lane id=":0/3_8_0" index="0" speed="25.00" length="2.41" shape="1.65,163.25 0.83,164.49 0.00,164.90"/>
    </edge>
    <edge id=":0/3_11" function="internal">
        <lane id=":0/3_11_0" index="0" speed="25.00" length="2.41" shape="0.00,164.90 -0.83,164.49 -1.65,163.25"/>
    </edge>
    <edge id=":0/4_0" function="internal">
        <lane id=":0/4_0_0" index="0" speed="25.00" length="7.90" shape="3.25,225.65 1.11,225.34 -0.42,224.43 -1.34,222.89 -1.65,220.75"/>
    </edge>
    <edge id=":0/4_1" function="internal">
        <lane id=":0/4_1_0" index="0" speed="25.00" length="2.80" shape="3.25,225.65 2.01,224.83 1.60,224.00 1.77,223.65"/>
    </edge>
    <edge id=":0/4_4" function="internal">
        <lane id=":0/4_4_0" index="0" speed="25.00" length="2.02" shape="1.77,223.65 2.01,223.18 3.25,222.35"/>
    </edge>
    <edge id=":0/4_2" function="internal">
        <lane id=":0/4_2_0" index="0" speed="25.00" length="2.58" shape="1.65,220.75 1.75,221.45 2.05,221.95 2.55,222.25 3.25,222.35"/>
    </edge>
    <edge id=":0/4_3" function="internal">
        <lane id=":0/4_3_0" index="0" speed="25.00" length="2.20" shape="1.65,220.75 0.83,221.99 0.19,222.31"/>
    </edge>
    <edge id=":0/4_5" function="internal">
        <lane id=":0/4_5_0" index="0" speed="25.00" length="2.62" shape="0.19,222.31 0.00,222.40 -0.83,221.99 -1.65,220.75"/>
    </edge>
    <edge id=":1/0_0" function="internal">
        <lane id=":1/0_0_0" index="0" speed="25.00" length="5.00" shape="54.35,4.75 54.16,3.39 53.58,2.43 52.61,1.84 51.25,1.65"/>
    </edge>
    <edge id=":1/0_1" function="internal">
        <lane id=":1/0_1_0" index="0" speed="25.00" length="10.32" shape="54.35,4.75 54.75,1.95 55.95,-0.05 57.95,-1.25 60.75,-1.65"/>
    </edge>
    <edge id=":1/0_2" function="internal">
        <lane id=":1/0_2_0" index="0" speed="25.00" length="4.82" shape="54.35,4.75 55.17,3.51 56.00,3.10 56.83,3.51 57.65,4.75"/>
    </edge>
    <edge id=":1/0_3" function="internal">
        <lane id=":1/0_3_0" index="0" speed="25.00" length="5.00" shape="60.75,1.65 59.39,1.84 58.43,2.42 57.84,3.39 57.65,4.75"/>
    </edge>
    <edge id=":1/0_4" function="internal">
        <lane id=":1/0_4_0" index="0" speed="25.00" length="9.50" shape="60.75,1.65 51.25,1.65"/>
    </edge>
    <edge id=":1/0_5" function="internal">
        <lane id=":1/0_5_0" index="0" speed="25.00" length="2.41" shape="60.75,1.65 59.51,0.83 59.10,0.00"/>
    </edge>
    <edge id=":1/0_9" function="internal">
        <lane id=":1/0_9_0" index="0" speed="25.00" length="2.41" shape="59.10,0.00 59.51,-0.82 60.75,-1.65"/>
    </edge>
    <edge id=":1/0_6" function="internal">
        <lane id=":1/0_6_0" index="0" speed="25.00" length="9.50" shape="51.25,-1.65 60.75,-1.65"/>
    </edge>
    <edge id=":1/0_7" function="internal">
        <lane id=":1/0_7_0" index="0" speed="25.00" length="5.28" shape="51.25,-1.65 54.05,-1.25 56.05,-0.05 56.11,0.05"/>
    </edge>
    <edge id=":1/0_8" function="internal">
        <lane id=":1/0_8_0" index="0" speed="25.00" length="2.41" shape="51.25,-1.65 52.49,-0.83 52.90,0.00"/>
    </edge>
    <edge id=":1/0_10" function="internal">
        <lane id=":1/0_10_0" index="0" speed="25.00" length="5.04" shape="56.11,0.05 57.25,1.95 57.65,4.75"/>
    </edge>
    <edge id=":1/0_11" function="internal">
        <lane id=":1/0_11_0" index="0" speed="25.00" length="2.41" shape="52.90,0.00 52.49,0.83 51.25,1.65"/>
    </edge>
    <edge id=":1/1_0" function="internal">
        <lane id=":1/1_0_0" index="0" speed="25.00" length="5.00" shape="54.35,60.75 54.16,59.39 53.58,58.43 52.61,57.84 51.25,57.65"/>
    </edge>
    <edge id=":1/1_1" function="internal">
        <lane id=":1/1_1_0" index="0" speed="25.00" length="9.50" shape="54.35,60.75 54.35,51.25"/>
    </edge>
    <edge id=":1/1_2" function="internal">
        <lane id=":1/1_2_0" index="0" speed="25.00" length="5.28" shape="54.35,60.75 54.75,57.95 55.95,55.95 56.05,55.89"/>
    </edge>
    <edge id=":1/1_3" function="internal">
        <lane id=":1/1_3_0" index="0" speed="25.00" length="2.41" shape="54.35,60.75 55.17,59.51 56.00,59.10"/>
    </edge>
    <edge id=":1/1_16" function="internal">
        <lane id=":1/1_16_0" index="0" speed="25.00" length="5.04" shape="56.05,55.89 57.95,54.75 60.75,54.35"/>
    </edge>
    <edge id=":1/1_17" function="internal">
        <lane id=":1/1_17_0" index="0" speed="25.00" length="2.41" shape="56.00,59.10 56.82,59.51 57.65,60.75"/>
    </edge>
    <edge id=":1/1_4" function="internal">
        <lane id=":1/1_4_0" index="0" speed="25.00" length="5.00" shape="60.75,57.65 59.39,57.84 58.43,58.42 57.84,59.39 57.65,60.75"/>
    </edge>
    <edge id=":1/1_5" function="internal">
        <lane id=":1/1_5_0" index="0" speed="25.00" length="9.50" shape="60.75,57.65 51.25,57.65"/>
    </edge>
    <edge id=":1/1_6" function="internal">
        <lane id=":1/1_6_0" index="0" speed="25.00" length="10.32" shape="60.75,57.65 57.95,57.25 55.95,56.05 54.75,54.05 54.35,51.25"/>
    </edge>
    <edge id=":1/1_7" function="internal">
        <lane id=":1/1_7_0" index="0" speed="25.00" length="4.82" shape="60.75,57.65 59.51,56.83 59.10,56.00 59.51,55.18 60.75,54.35"/>
    </edge>
    <edge id=":1/1_8" function="internal">
        <lane id=":1/1_8_0" index="0" speed="25.00" length="5.00" shape="57.65,51.25 57.84,52.61 58.42,53.57 59.39,54.16 60.75,54.35"/>
    </edge>
    <edge id=":1/1_9" function="internal">
        <lane id=":1/1_9_0" index="0" speed="25.00" length="9.50" shape="57.65,51.25 57.65,60.75"/>
    </edge>
    <edge id=":1/1_10" function="internal">
        <lane id=":1/1_10_0" index="0" speed="25.00" length="5.28" shape="57.65,51.25 57.25,54.05 56.05,56.05 55.95,56.11"/>
    </edge>
    <edge id=":1/1_11" function="internal">
        <lane id=":1/1_11_0" index="0" speed="25.00" length="2.41" shape="57.65,51.25 56.83,52.49 56.00,52.90"/>
    </edge>
    <edge id=":1/1_18" function="internal">
        <lane id=":1/1_18_0" index="0" speed="25.00" length="5.04" shape="55.95,56.11 54.05,57.25 51.25,57.65"/>
    </edge>
    <edge id=":1/1_19" function="internal">
        <lane id=":1/1_19_0" index="0" speed="25.00" length="2.41" shape="56.00,52.90 55.17,52.49 54.35,51.25"/>
    </edge>
    <edge id=":1/1_12" function="internal">
        <lane id=":1/1_12_0" index="0" speed="25.00" length="5.00" shape="51.25,54.35 52.61,54.16 53.57,53.58 54.16,52.61 54.35,51.25"/>
    </edge>
    <edge id=":1/1_13" function="internal">
        <lane id=":1/1_13_0" index="0" speed="25.00" length="9.50" shape="51.25,54.35 60.75,54.35"/>
    </edge>
    <edge id=":1/1_14" function="internal">
        <lane id=":1/1_14_0" index="0" speed="25.00" length="10.32" shape="51.25,54.35 54.05,54.75 56.05,55.95 57.25,57.95 57.65,60.75"/>
    </edge>
    <edge id=":1/1_15" function="internal">
        <lane id=":1/1_15_0" index="0" speed="25.00" length="4.82" shape="51.25,54.35 52.49,55.18 52.90,56.00 52.49,56.83 51.25,57.65"/>
    </edge>
    <edge id=":1/2_0" function="internal">
        <lane id=":1/2_0_0" index="0" speed="25.00" length="5.00" shape="54.35,116.75 54.16,115.39 53.58,114.43 52.61,113.84 51.25,113.65"/>
    </edge>
    <edge id=":1/2_1" function="internal">
        <lane id=":1/2_1_0" index="0" speed="25.00" length="9.50" shape="54.35,116.75 54.35,107.25"/>
    </edge>
    <edge id=":1/2_2" function="internal">
        <lane id=":1/2_2_0" index="0" speed="25.00" length="5.28" shape="54.35,116.75 54.75,113.95 55.95,111.95 56.05,111.89"/>
    </edge>
    <edge id=":1/2_3" function="internal">
        <lane id=":1/2_3_0" index="0" speed="25.00" length="2.41" shape="54.35,116.75 55.17,115.51 56.00,115.10"/>
    </edge>
    <edge id=":1/2_16" function="internal">
        <lane id=":1/2_16_0" index="0" speed="25.00" length="5.04" shape="56.05,111.89 57.95,110.75 60.75,110.35"/>
    </edge>
    <edge id=":1/2_17" function="internal">
        <lane id=":1/2_17_0" index="0" speed="25.00" length="2.41" shape="56.00,115.10 56.82,115.51 57.65,116.75"/>
    </edge>
    <edge id=":1/2_4" function="internal">
        <lane id=":1/2_4_0" index="0" speed="25.00" length="5.00" shape="60.75,113.65 59.39,113.84 58.43,114.43 57.84,115.39 57.65,116.75"/>
    </edge>
    <edge id=":1/2_5" function="internal">
        <lane id=":1/2_5_0" index="0" speed="25.00" length="9.50" shape="60.75,113.65 51.25,113.65"/>
    </edge>
    <edge id=":1/2_6" function="internal">
        <lane id=":1/2_6_0" index="0" speed="25.00" length="10.32" shape="60.75,113.65 57.95,113.25 55.95,112.05 54.75,110.05 54.35,107.25"/>
    </edge>
    <edge id=":1/2_7" function="internal">
        <lane id=":1/2_7_0" index="0" speed="25.00" length="4.82" shape="60.75,113.65 59.51,112.83 59.10,112.00 59.51,111.18 60.75,110.35"/>
    </edge>
    <edge id=":1/2_8" function="internal">
        <lane id=":1/2_8_0" index="0" speed="25.00" length="5.00" shape="57.65,107.25 57.84,108.61 58.42,109.57 59.39,110.16 60.75,110.35"/>
    </edge>
    <edge id=":1/2_9" function="internal">
        <lane id=":1/2_9_0" index="0" speed="25.00" length="9.50" shape="57.65,107.25 57.65,116.75"/>
    </edge>
    <edge id=":1/2_10" function="internal">
        <lane id=":1/2_10_0" index="0" speed="25.00" length="5.28" shape="57.65,107.25 57.25,110.05 56.05,112.05 55.95,112.11"/>
    </edge>
    <edge id=":1/2_11" function="internal">
        <lane id=":1/2_11_0" index="0" speed="25.00" length="2.41" shape="57.65,107.25 56.83,108.49 56.00,108.90"/>
    </edge>
    <edge id=":1/2_18" function="internal">
        <lane id=":1/2_18_0" index="0" speed="25.00" length="5.04" shape="55.95,112.11 54.05,113.25 51.25,113.65"/>
    </edge>
    <edge id=":1/2_19" function="internal">
        <lane id=":1/2_19_0" index="0" speed="25.00" length="2.41" shape="56.00,108.90 55.17,108.49 54.35,107.25"/>
    </edge>
    <edge id=":1/2_12" function="internal">
        <lane id=":1/2_12_0" index="0" speed="25.00" length="5.00" shape="51.25,110.35 52.61,110.16 53.57,109.57 54.16,108.61 54.35,107.25"/>
    </edge>
    <edge id=":1/2_13" function="internal">
        <lane id=":1/2_13_0" index="0" speed="25.00" length="9.50" shape="51.25,110.35 60.75,110.35"/>
    </edge>
    <edge id=":1/2_14" function="internal">
        <lane id=":1/2_14_0" index="0" speed="25.00" length="10.32" shape="51.25,110.35 54.05,110.75 56.05,111.95 57.25,113.95 57.65,116.75"/>
    </edge>
    <edge id=":1/2_15" function="internal">
        <lane id=":1/2_15_0" index="0" speed="25.00" length="4.82" shape="51.25,110.35 52.49,111.18 52.90,112.00 52.49,112.83 51.25,113.65"/>
    </edge>
    <edge id=":1/3_0" function="internal">
        <lane id=":1/3_0_0" index="0" speed="25.00" length="5.00" shape="54.35,172.75 54.16,171.39 53.58,170.42 52.61,169.84 51.25,169.65"/>
    </edge>
    <edge id=":1/3_1" function="internal">
        <lane id=":1/3_1_0" index="0" speed="25.00" length="9.50" shape="54.35,172.75 54.35,163.25"/>
    </edge>
    <edge id=":1/3_2" function="internal">
        <lane id=":1/3_2_0" index="0" speed="25.00" length="5.28" shape="54.35,172.75 54.75,169.95 55.95,167.95 56.05,167.89"/>
    </edge>
    <edge id=":1/3_3" function="internal">
        <lane id=":1/3_3_0" index="0" speed="25.00" length="2.41" shape="54.35,172.75 55.18,171.51 56.00,171.10"/>
    </edge>
    <edge id=":1/3_16" function="internal">
        <lane id=":1/3_16_0" index="0" speed="25.00" length="5.04" shape="56.05,167.89 57.95,166.75 60.75,166.35"/>
    </edge>
    <edge id=":1/3_17" function="internal">
        <lane id=":1/3_17_0" index="0" speed="25.00" length="2.41" shape="56.00,171.10 56.83,171.51 57.65,172.75"/>
    </edge>
    <edge id=":1/3_4" function="internal">
        <lane id=":1/3_4_0" index="0" speed="25.00" length="5.00" shape="60.75,169.65 59.39,169.84 58.43,170.43 57.84,171.39 57.65,172.75"/>
    </edge>
    <edge id=":1/3_5" function="internal">
        <lane id=":1/3_5_0" index="0" speed="25.00" length="9.50" shape="60.75,169.65 51.25,169.65"/>
    </edge>
    <edge id=":1/3_6" function="internal">
        <lane id=":1/3_6_0" index="0" speed="25.00" length="10.32" shape="60.75,169.65 57.95,169.25 55.95,168.05 54.75,166.05 54.35,163.25"/>
    </edge>
    <edge id=":1/3_7" function="internal">
        <lane id=":1/3_7_0" index="0" speed="25.00" length="4.82" shape="60.75,169.65 59.51,168.83 59.10,168.00 59.51,167.18 60.75,166.35"/>
    </edge>
    <edge id=":1/3_8" function="internal">
        <lane id=":1/3_8_0" index="0" speed="25.00" length="5.00" shape="57.65,163.25 57.84,164.61 58.42,165.57 59.39,166.16 60.75,166.35"/>
    </edge>
    <edge id=":1/3_9" function="internal">
        <lane id=":1/3_9_0" index="0" speed="25.00" length="9.50" shape="57.65,163.25 57.65,172.75"/>
    </edge>
    <edge id=":1/3_10" function="internal">
        <lane id=":1/3_10_0" index="0" speed="25.00" length="5.28" shape="57.65,163.25 57.25,166.05 56.05,168.05 55.95,168.11"/>
    </edge>
    <edge id=":1/3_11" function="internal">
        <lane id=":1/3_11_0" index="0" speed="25.00" length="2.41" shape="57.65,163.25 56.83,164.49 56.00,164.90"/>
    </edge>
    <edge id=":1/3_18" function="internal">
        <lane id=":1/3_18_0" index="0" speed="25.00" length="5.04" shape="55.95,168.11 54.05,169.25 51.25,169.65"/>
    </edge>
    <edge id=":1/3_19" function="internal">
        <lane id=":1/3_19_0" index="0" speed="25.00" length="2.41" shape="56.00,164.90 55.17,164.49 54.35,163.25"/>
    </edge>
    <edge id=":1/3_12" function="internal">
        <lane id=":1/3_12_0" index="0" speed="25.00" length="5.00" shape="51.25,166.35 52.61,166.16 53.57,165.57 54.16,164.61 54.35,163.25"/>
    </edge>
    <edge id=":1/3_13" function="internal">
        <lane id=":1/3_13_0" index="0" speed="25.00" length="9.50" shape="51.25,166.35 60.75,166.35"/>
    </edge>
    <edge id=":1/3_14" function="internal">
        <lane id=":1/3_14_0" index="0" speed="25.00" length="10.32" shape="51.25,166.35 54.05,166.75 56.05,167.95 57.25,169.95 57.65,172.75"/>
    </edge>
    <edge id=":1/3_15" function="internal">
        <lane id=":1/3_15_0" index="0" speed="25.00" length="4.82" shape="51.25,166.35 52.49,167.17 52.90,168.00 52.49,168.82 51.25,169.65"/>
    </edge>
    <edge id=":1/4_0" function="internal">
        <lane id=":1/4_0_0" index="0" speed="25.00" length="9.50" shape="60.75,225.65 51.25,225.65"/>
    </edge>
    <edge id=":1/4_1" function="internal">
        <lane id=":1/4_1_0" index="0" speed="25.00" length="5.28" shape="60.75,225.65 57.95,225.25 55.95,224.05 55.89,223.95"/>
    </edge>
    <edge id=":1/4_2" function="internal">
        <lane id=":1/4_2_0" index="0" speed="25.00" length="2.41" shape="60.75,225.65 59.51,224.83 59.10,224.00"/>
    </edge>
    <edge id=":1/4_9" function="internal">
        <lane id=":1/4_9_0" index="0" speed="25.00" length="5.04" shape="55.89,223.95 54.75,222.05 54.35,219.25"/>
    </edge>
    <edge id=":1/4_10" function="internal">
        <lane id=":1/4_10_0" index="0" speed="25.00" length="2.41" shape="59.10,224.00 59.51,223.18 60.75,222.35"/>
    </edge>
    <edge id=":1/4_3" function="internal">
        <lane id=":1/4_3_0" index="0" speed="25.00" length="5.00" shape="57.65,219.25 57.84,220.61 58.42,221.57 59.39,222.16 60.75,222.35"/>
    </edge>
    <edge id=":1/4_4" function="internal">
        <lane id=":1/4_4_0" index="0" speed="25.00" length="10.32" shape="57.65,219.25 57.25,222.05 56.05,224.05 54.05,225.25 51.25,225.65"/>
    </edge>
    <edge id=":1/4_5" function="internal">
        <lane id=":1/4_5_0" index="0" speed="25.00" length="4.82" shape="57.65,219.25 56.83,220.49 56.00,220.90 55.17,220.49 54.35,219.25"/>
    </edge>
    <edge id=":1/4_6" function="internal">
        <lane id=":1/4_6_0" index="0" speed="25.00" length="5.00" shape="51.25,222.35 52.61,222.16 53.57,221.57 54.16,220.61 54.35,219.25"/>
    </edge>
    <edge id=":1/4_7" function="internal">
        <lane id=":1/4_7_0" index="0" speed="25.00" length="9.50" shape="51.25,222.35 60.75,222.35"/>
    </edge>
    <edge id=":1/4_8" function="internal">
        <lane id=":1/4_8_0" index="0" speed="25.00" length="2.41" shape="51.25,222.35 52.49,223.17 52.90,224.00"/>
    </edge>
    <edge id=":1/4_11" function="internal">
        <lane id=":1/4_11_0" index="0" speed="25.00" length="2.41" shape="52.90,224.00 52.49,224.82 51.25,225.65"/>
    </edge>
    <edge id=":2/0_0" function="internal">
        <lane id=":2/0_0_0" index="0" speed="25.00" length="5.00" shape="110.35,4.75 110.16,3.39 109.57,2.43 108.61,1.84 107.25,1.65"/>
    </edge>
    <edge id=":2/0_1" function="internal">
        <lane id=":2/0_1_0" index="0" speed="25.00" length="10.32" shape="110.35,4.75 110.75,1.95 111.95,-0.05 113.95,-1.25 116.75,-1.65"/>
    </edge>
    <edge id=":2/0_2" function="internal">
        <lane id=":2/0_2_0" index="0" speed="25.00" length="4.82" shape="110.35,4.75 111.17,3.51 112.00,3.10 112.82,3.51 113.65,4.75"/>
    </edge>
    <edge id=":2/0_3" function="internal">
        <lane id=":2/0_3_0" index="0" speed="25.00" length="5.00" shape="116.75,1.65 115.39,1.84 114.43,2.42 113.84,3.39 113.65,4.75"/>
    </edge>
    <edge id=":2/0_4" function="internal">
        <lane id=":2/0_4_0" index="0" speed="25.00" length="9.50" shape="116.75,1.65 107.25,1.65"/>
    </edge>
    <edge id=":2/0_5" function="internal">
        <lane id=":2/0_5_0" index="0" speed="25.00" length="2.41" shape="116.75,1.65 115.51,0.83 115.10,0.00"/>
    </edge>
    <edge id=":2/0_9" function="internal">
        <lane id=":2/0_9_0" index="0" speed="25.00" length="2.41" shape="115.10,0.00 115.51,-0.82 116.75,-1.65"/>
    </edge>
    <edge id=":2/0_6" function="internal">
        <lane id=":2/0_6_0" index="0" speed="25.00" length="9.50" shape="107.25,-1.65 116.75,-1.65"/>
    </edge>
    <edge id=":2/0_7" function="internal">
        <lane id=":2/0_7_0" index="0" speed="25.00" length="5.28" shape="107.25,-1.65 110.05,-1.25 112.05,-0.05 112.11,0.05"/>
    </edge>
    <edge id=":2/0_8" function="internal">
        <lane id=":2/0_8_0" index="0" speed="25.00" length="2.41" shape="107.25,-1.65 108.49,-0.83 108.90,0.00"/>
    </edge>
    <edge id=":2/0_10" function="internal">
        <lane id=":2/0_10_0" index="0" speed="25.00" length="5.04" shape="112.11,0.05 113.25,1.95 113.65,4.75"/>
    </edge>
    <edge id=":2/0_11" function="internal">
        <lane id=":2/0_11_0" index="0" speed="25.00" length="2.41" shape="108.90,0.00 108.49,0.83 107.25,1.65"/>
    </edge>
    <edge id=":2/1_0" function="internal">
        <lane id=":2/1_0_0" index="0" speed="25.00" length="5.00" shape="110.35,60.75 110.16,59.39 109.57,58.43 108.61,57.84 107.25,57.65"/>
    </edge>
    <edge id=":2/1_1" function="internal">
        <lane id=":2/1_1_0" index="0" speed="25.00" length="9.50" shape="110.35,60.75 110.35,51.25"/>
    </edge>
    <edge id=":2/1_2" function="internal">
        <lane id=":2/1_2_0" index="0" speed="25.00" length="5.28" shape="110.35,60.75 110.75,57.95 111.95,55.95 112.05,55.89"/>
    </edge>
    <edge id=":2/1_3" function="internal">
        <lane id=":2/1_3_0" index="0" speed="25.00" length="2.41" shape="110.35,60.75 111.17,59.51 112.00,59.10"/>
    </edge>
    <edge id=":2/1_16" function="internal">
        <lane id=":2/1_16_0" index="0" speed="25.00" length="5.04" shape="112.05,55.89 113.95,54.75 116.75,54.35"/>
    </edge>
    <edge id=":2/1_17" function="internal">
        <lane id=":2/1_17_0" index="0" speed="25.00" length="2.41" shape="112.00,59.10 112.82,59.51 113.65,60.75"/>
    </edge>
    <edge id=":2/1_4" function="internal">
        <lane id=":2/1_4_0" index="0" speed="25.00" length="5.00" shape="116.75,57.65 115.39,57.84 114.43,58.42 113.84,59.39 113.65,60.75"/>
    </edge>
    <edge id=":2/1_5" function="internal">
        <lane id=":2/1_5_0" index="0" speed="25.00" length="9.50" shape="116.75,57.65 107.25,57.65"/>
    </edge>
    <edge id=":2/1_6" function="internal">
        <lane id=":2/1_6_0" index="0" speed="25.00" length="10.32" shape="116.75,57.65 113.95,57.25 111.95,56.05 110.75,54.05 110.35,51.25"/>
    </edge>
    <edge id=":2/1_7" function="internal">
        <lane id=":2/1_7_0" index="0" speed="25.00" length="4.82" shape="116.75,57.65 115.51,56.83 115.10,56.00 115.51,55.18 116.75,54.35"/>
    </edge>
    <edge id=":2/1_8" function="internal">
        <lane id=":2/1_8_0" index="0" speed="25.00" length="5.00" shape="113.65,51.25 113.84,52.61 114.43,53.57 115.39,54.16 116.75,54.35"/>
    </edge>
    <edge id=":2/1_9" function="internal">
        <lane id=":2/1_9_0" index="0" speed="25.00" length="9.50" shape="113.65,51.25 113.65,60.75"/>
    </edge>
    <edge id=":2/1_10" function="internal">
        <lane id=":2/1_10_0" index="0" speed="25.00" length="5.28" shape="113.65,51.25 113.25,54.05 112.05,56.05 111.95,56.11"/>
    </edge>
    <edge id=":2/1_11" function="internal">
        <lane id=":2/1_11_0" index="0" speed="25.00" length="2.41" shape="113.65,51.25 112.82,52.49 112.00,52.90"/>
    </edge>
    <edge id=":2/1_18" function="internal">
        <lane id=":2/1_18_0" index="0" speed="25.00" length="5.04" shape="111.95,56.11 110.05,57.25 107.25,57.65"/>
    </edge>
    <edge id=":2/1_19" function="internal">
        <lane id=":2/1_19_0" index="0" speed="25.00" length="2.41" shape="112.00,52.90 111.17,52.49 110.35,51.25"/>
    </edge>
    <edge id=":2/1_12" function="internal">
        <lane id=":2/1_12_0" index="0" speed="25.00" length="5.00" shape="107.25,54.35 108.61,54.16 109.57,53.58 110.16,52.61 110.35,51.25"/>
    </edge>
    <edge id=":2/1_13" function="internal">
        <lane id=":2/1_13_0" index="0" speed="25.00" length="9.50" shape="107.25,54.35 116.75,54.35"/>
    </edge>
    <edge id=":2/1_14" function="internal">
        <lane id=":2/1_14_0" index="0" speed="25.00" length="10.32" shape="107.25,54.35 110.05,54.75 112.05,55.95 113.25,57.95 113.65,60.75"/>
    </edge>
    <edge id=":2/1_15" function="internal">