<?xml version="1.0" encoding="UTF-8"?>
<!-- generated on 2018-05-03 22:46:50.315744 by $Id$
  options: -n mapgrid.net.xml -e 28 -l <doubleminus>trip-attributes=departLane="best" departSpeed="max" departPos="random_free" -o trips.trips.xml
-->
<routes xmlns:xsi="http://www.w3.org/2001/XMLSchema-instance" xsi:noNamespaceSchemaLocation="http://sumo.dlr.de/xsd/routes_file.xsd">
    <trip id="0" depart="0.00" from="6/2to6/3" to="3/4to3/3" departLane="best" departSpeed="max" departPos="random_free"/>
    <trip id="1" depart="1.00" from="3/1to2/1" to="7/6to7/5" departLane="best" departSpeed="max" departPos="random_free"/>
    <trip id="2" depart="2.00" from="3/2to3/3" to="10/1to10/0" departLane="best" departSpeed="max" departPos="random_free"/>
    <trip id="3" depart="3.00" from="10/5to10/4" to="3/2to3/1" departLane="best" departSpeed="max" departPos="random_free"/>
    <trip id="4" depart="4.00" from="1/6to1/5" to="4/0to3/0" departLane="best" departSpeed="max" departPos="random_free"/>
    <trip id="5" depart="5.00" from="9/2to10/2" to="4/3to4/2" departLane="best" departSpeed="max" departPos="random_free"/>
    <trip id="6" depart="6.00" from="2/0to1/0" to="5/7to5/6" departLane="best" departSpeed="max" departPos="random_free"/>
    <trip id="7" depart="7.00" from="7/5to7/6" to="9/8to9/9" departLane="best" departSpeed="max" departPos="random_free"/>
    <trip id="8" depart="8.00" from="4/2to3/2" to="7/0to6/0" departLane="best" departSpeed="max" departPos="random_free"/>
    <trip id="9" depart="9.00" from="8/4to8/3" to="8/9to8/10" departLane="best" departSpeed="max" departPos="random_free"/>
    <trip id="10" depart="10.00" from="0/10to0/9" to="0/3to0/4" departLane="best" departSpeed="max" departPos="random_free"/>
    <trip id="11" depart="11.00" from="6/8to6/7" to="7/9to7/10" departLane="best" departSpeed="max" departPos="random_free"/>
    <trip id="12" depart="12.00" from="6/5to6/4" to="10/2to10/3" departLane="best" departSpeed="max" departPos="random_free"/>
    <trip id="13" depart="13.00" from="7/4to8/4" to="0/4to1/4" departLane="best" departSpeed="max" departPos="random_free"/>
    <trip id="14" depart="14.00" from="8/1to8/2" to="0/1to1/1" departLane="best" departSpeed="max" departPos="random_free"/>
    <trip id="15" depart="15.00" from="8/10to7/10" to="9/6to8/6" departLane="best" departSpeed="max" departPos="random_free"/>
    <trip id="16" depart="16.00" from="10/6to10/7" to="4/2to4/1" departLane="best" departSpeed="max" departPos="random_free"/>
    <trip id="17" depart="17.00" from="8/7to8/8" to="1/9to0/9" departLane="best" departSpeed="max" departPos="random_free"/>
    <trip id="18" depart="18.00" from="0/0to1/0" to="2/9to3/9" departLane="best" departSpeed="max" departPos="random_free"/>
    <trip id="19" depart="19.00" from="8/1to7/1" to="1/6to2/6" departLane="best" departSpeed="max" departPos="random_free"/>
    <trip id="20" depart="20.00" from="9/2to10/2" to="9/1to9/2" departLane="best" departSpeed="max" departPos="random_free"/>
    <trip id="21" depart="21.00" from="10/5to10/4" to="4/10to4/9" departLane="best" departSpeed="max" departPos="random_free"/>
    <trip id="22" depart="22.00" from="3/1to3/0" to="0/3to0/4" departLane="best" departSpeed="max" departPos="random_free"/>
    <trip id="23" depart="23.00" from="1/7to1/8" to="6/6to6/7" departLane="best" departSpeed="max" departPos="random_free"/>
    <trip id="24" depart="24.00" from="4/7to4/8" to="1/8to1/7" departLane="best" departSpeed="max" departPos="random_free"/>
    <trip id="25" depart="25.00" from="2/4to3/4" to="2/7to2/8" departLane="best" departSpeed="max" departPos="random_free"/>
    <trip id="26" depart="26.00" from="2/4to1/4" to="10/3to9/3" departLane="best" departSpeed="max" departPos="random_free"/>
    <trip id="27" depart="27.00" from="1/7to2/7" to="4/3to3/3" departLane="best" departSpeed="max" departPos="random_free"/>
</routes>
