<?xml version="1.0" encoding="UTF-8"?>
<!-- generated on 2018-05-02 21:57:37.296945 by $Id$
  options: -n mapgrid.net.xml -e 28 -l <doubleminus>trip-attributes=departLane="best" departSpeed="max" departPos="random_free" -o trips.trips.xml
-->
<routes xmlns:xsi="http://www.w3.org/2001/XMLSchema-instance" xsi:noNamespaceSchemaLocation="http://sumo.dlr.de/xsd/routes_file.xsd">
    <trip id="0" depart="0.00" from="-156261228" to="28410277#0" departLane="best" departSpeed="max" departPos="random_free"/>
    <trip id="1" depart="1.00" from="449480717#0" to="-156261263" departLane="best" departSpeed="max" departPos="random_free"/>
    <trip id="2" depart="2.00" from="-156261488" to="222800434#1" departLane="best" departSpeed="max" departPos="random_free"/>
    <trip id="3" depart="3.00" from="156261445" to="28356498#1" departLane="best" departSpeed="max" departPos="random_free"/>
    <trip id="4" depart="4.00" from="28410277#4" to="303948395#0" departLane="best" departSpeed="max" departPos="random_free"/>
    <trip id="5" depart="5.00" from="-376918047" to="-422082717#0" departLane="best" departSpeed="max" departPos="random_free"/>
    <trip id="6" depart="6.00" from="-422082677" to="-156261613#0" departLane="best" departSpeed="max" departPos="random_free"/>
    <trip id="7" depart="7.00" from="-353154174#1" to="-28410233#0" departLane="best" departSpeed="max" departPos="random_free"/>
    <trip id="8" depart="8.00" from="369538887#1" to="303948346#0" departLane="best" departSpeed="max" departPos="random_free"/>
    <trip id="9" depart="9.00" from="-156261502#0" to="-326480126" departLane="best" departSpeed="max" departPos="random_free"/>
    <trip id="10" depart="10.00" from="307395967#0" to="307395967#2" departLane="best" departSpeed="max" departPos="random_free"/>
    <trip id="11" depart="11.00" from="418865870#1" to="450298089" departLane="best" departSpeed="max" departPos="random_free"/>
    <trip id="12" depart="12.00" from="222799177" to="327728882#4" departLane="best" departSpeed="max" departPos="random_free"/>
    <trip id="13" depart="13.00" from="448270567#1" to="450298088#0" departLane="best" departSpeed="max" departPos="random_free"/>
    <trip id="14" depart="14.00" from="285027168#1" to="-36048880#0" departLane="best" departSpeed="max" departPos="random_free"/>
    <trip id="15" depart="15.00" from="-308511913" to="327728882#3" departLane="best" departSpeed="max" departPos="random_free"/>
    <trip id="16" depart="16.00" from="369652618" to="-156261342#0" departLane="best" departSpeed="max" departPos="random_free"/>
    <trip id="17" depart="17.00" from="-449480717#1" to="285027170#3" departLane="best" departSpeed="max" departPos="random_free"/>
    <trip id="18" depart="18.00" from="156261495#2" to="222800434#1" departLane="best" departSpeed="max" departPos="random_free"/>
    <trip id="19" depart="19.00" from="156261312#0" to="353154176#1" departLane="best" departSpeed="max" departPos="random_free"/>
    <trip id="20" depart="20.00" from="303948410" to="376918047" departLane="best" departSpeed="max" departPos="random_free"/>
    <trip id="21" depart="21.00" from="308511912" to="284980115#8" departLane="best" departSpeed="max" departPos="random_free"/>
    <trip id="22" depart="22.00" from="222799176" to="-156261263" departLane="best" departSpeed="max" departPos="random_free"/>
    <trip id="23" depart="23.00" from="284980115#1" to="-28410233#0" departLane="best" departSpeed="max" departPos="random_free"/>
    <trip id="24" depart="24.00" from="-156261190" to="-367619833#0" departLane="best" departSpeed="max" departPos="random_free"/>
    <trip id="25" depart="25.00" from="156261367" to="156261190" departLane="best" departSpeed="max" departPos="random_free"/>
    <trip id="26" depart="26.00" from="369538883#3" to="285027167" departLane="best" departSpeed="max" departPos="random_free"/>
    <trip id="27" depart="27.00" from="-156261488" to="156261495#1" departLane="best" departSpeed="max" departPos="random_free"/>
</routes>
