<?xml version="1.0" encoding="UTF-8"?>
<!-- generated on 2018-05-02 15:29:36.250043 by $Id$
  options: -n mapgrid.net.xml -e 38 -l <doubleminus>trip-attributes=departLane="best" departSpeed="max" departPos="random_free" -o trips.trips.xml
-->
<routes xmlns:xsi="http://www.w3.org/2001/XMLSchema-instance" xsi:noNamespaceSchemaLocation="http://sumo.dlr.de/xsd/routes_file.xsd">
    <trip id="0" depart="0.00" from="-156261299#1" to="450525266" departLane="best" departSpeed="max" departPos="random_free"/>
    <trip id="1" depart="1.00" from="-422082701#1" to="369538887#1" departLane="best" departSpeed="max" departPos="random_free"/>
    <trip id="2" depart="2.00" from="455032297" to="-450525270#0" departLane="best" departSpeed="max" departPos="random_free"/>
    <trip id="3" depart="3.00" from="-353154181" to="-455032297" departLane="best" departSpeed="max" departPos="random_free"/>
    <trip id="4" depart="4.00" from="-303948346#1" to="369538887#3" departLane="best" departSpeed="max" departPos="random_free"/>
    <trip id="5" depart="5.00" from="-156261554" to="-156261310#1" departLane="best" departSpeed="max" departPos="random_free"/>
    <trip id="6" depart="6.00" from="349836653" to="447615376" departLane="best" departSpeed="max" departPos="random_free"/>
    <trip id="7" depart="7.00" from="-119109424" to="349836653" departLane="best" departSpeed="max" departPos="random_free"/>
    <trip id="8" depart="8.00" from="422082686" to="119109424" departLane="best" departSpeed="max" departPos="random_free"/>
    <trip id="9" depart="9.00" from="422082701#1" to="-422082693" departLane="best" departSpeed="max" departPos="random_free"/>
    <trip id="10" depart="10.00" from="353154174#0" to="-353154174#1" departLane="best" departSpeed="max" departPos="random_free"/>
    <trip id="11" depart="11.00" from="28716610" to="28356498#0" departLane="best" departSpeed="max" departPos="random_free"/>
    <trip id="12" depart="12.00" from="156261225" to="156261342#0" departLane="best" departSpeed="max" departPos="random_free"/>
    <trip id="13" depart="13.00" from="-449480717#2" to="156261299#0" departLane="best" departSpeed="max" departPos="random_free"/>
    <trip id="14" depart="14.00" from="-422082701#0" to="303948405#1" departLane="best" departSpeed="max" departPos="random_free"/>
    <trip id="15" depart="15.00" from="156261190" to="28410233#0" departLane="best" departSpeed="max" departPos="random_free"/>
    <trip id="16" depart="16.00" from="-418865870#1" to="156261342#0" departLane="best" departSpeed="max" departPos="random_free"/>
    <trip id="17" depart="17.00" from="448270567#5" to="303948413" departLane="best" departSpeed="max" departPos="random_free"/>
    <trip id="18" depart="18.00" from="349836653" to="303948407" departLane="best" departSpeed="max" departPos="random_free"/>
    <trip id="19" depart="19.00" from="284980115#5" to="317197955" departLane="best" departSpeed="max" departPos="random_free"/>
    <trip id="20" depart="20.00" from="156261251" to="222800434#0" departLane="best" departSpeed="max" departPos="random_free"/>
    <trip id="21" depart="21.00" from="-156261251" to="-449480717#1" departLane="best" departSpeed="max" departPos="random_free"/>
    <trip id="22" depart="22.00" from="-450298097" to="-119109423#1" departLane="best" departSpeed="max" departPos="random_free"/>
    <trip id="23" depart="23.00" from="447615376" to="448270567#2" departLane="best" departSpeed="max" departPos="random_free"/>
    <trip id="24" depart="24.00" from="-450525270#0" to="448272049" departLane="best" departSpeed="max" departPos="random_free"/>
    <trip id="25" depart="25.00" from="156261251" to="369538883#1" departLane="best" departSpeed="max" departPos="random_free"/>
    <trip id="26" depart="26.00" from="369652617" to="156261502#4" departLane="best" departSpeed="max" departPos="random_free"/>
    <trip id="27" depart="27.00" from="448270567#2" to="-326480126" departLane="best" departSpeed="max" departPos="random_free"/>
    <trip id="28" depart="28.00" from="156261367" to="422082701#1" departLane="best" departSpeed="max" departPos="random_free"/>
    <trip id="29" depart="29.00" from="28410233#0" to="-303948413" departLane="best" departSpeed="max" departPos="random_free"/>
    <trip id="30" depart="30.00" from="307395967#1" to="36048880#0" departLane="best" departSpeed="max" departPos="random_free"/>
    <trip id="31" depart="31.00" from="450298088#0" to="-422082701#2" departLane="best" departSpeed="max" departPos="random_free"/>
    <trip id="32" depart="32.00" from="156261502#6" to="-156261356#1" departLane="best" departSpeed="max" departPos="random_free"/>
    <trip id="33" depart="33.00" from="-317197954#2" to="303948405#1" departLane="best" departSpeed="max" departPos="random_free"/>
    <trip id="34" depart="34.00" from="-156261168" to="367619842" departLane="best" departSpeed="max" departPos="random_free"/>
    <trip id="35" depart="35.00" from="156261263" to="-422082695" departLane="best" departSpeed="max" departPos="random_free"/>
    <trip id="36" depart="36.00" from="369538882#0" to="303948410" departLane="best" departSpeed="max" departPos="random_free"/>
    <trip id="37" depart="37.00" from="367619846#2" to="-449480717#2" departLane="best" departSpeed="max" departPos="random_free"/>
</routes>
