<?xml version="1.0" encoding="UTF-8"?>
<!-- generated on 2018-05-03 14:21:30.872853 by $Id$
  options: -n mapgrid.net.xml -e 28 -l <doubleminus>trip-attributes=departLane="best" departSpeed="max" departPos="random_free" -o trips.trips.xml
-->
<routes xmlns:xsi="http://www.w3.org/2001/XMLSchema-instance" xsi:noNamespaceSchemaLocation="http://sumo.dlr.de/xsd/routes_file.xsd">
    <trip id="0" depart="0.00" from="450298099" to="-156261351#0" departLane="best" departSpeed="max" departPos="random_free"/>
    <trip id="1" depart="1.00" from="-156261342#0" to="353154185" departLane="best" departSpeed="max" departPos="random_free"/>
    <trip id="2" depart="2.00" from="156261445" to="-449480718" departLane="best" departSpeed="max" departPos="random_free"/>
    <trip id="3" depart="3.00" from="28716610" to="156261502#3" departLane="best" departSpeed="max" departPos="random_free"/>
    <trip id="4" depart="4.00" from="156261613#2" to="450298097" departLane="best" departSpeed="max" departPos="random_free"/>
    <trip id="5" depart="5.00" from="-367938218" to="119109423#0" departLane="best" departSpeed="max" departPos="random_free"/>
    <trip id="6" depart="6.00" from="-353154171#1" to="307395967#2" departLane="best" departSpeed="max" departPos="random_free"/>
    <trip id="7" depart="7.00" from="303948412#1" to="156261488" departLane="best" departSpeed="max" departPos="random_free"/>
    <trip id="8" depart="8.00" from="-450298097" to="156261263" departLane="best" departSpeed="max" departPos="random_free"/>
    <trip id="9" depart="9.00" from="156261367" to="367619833#0" departLane="best" departSpeed="max" departPos="random_free"/>
    <trip id="10" depart="10.00" from="-156261495#2" to="-367938203" departLane="best" departSpeed="max" departPos="random_free"/>
    <trip id="11" depart="11.00" from="-303948346#0" to="156261488" departLane="best" departSpeed="max" departPos="random_free"/>
    <trip id="12" depart="12.00" from="-450298097" to="156261190" departLane="best" departSpeed="max" departPos="random_free"/>
    <trip id="13" depart="13.00" from="422082701#1" to="369538887#2" departLane="best" departSpeed="max" departPos="random_free"/>
    <trip id="14" depart="14.00" from="-156261190" to="28410233#0" departLane="best" departSpeed="max" departPos="random_free"/>
    <trip id="15" depart="15.00" from="369538882#0" to="119109423#1" departLane="best" departSpeed="max" departPos="random_free"/>
    <trip id="16" depart="16.00" from="-156261190" to="317197954#5" departLane="best" departSpeed="max" departPos="random_free"/>
    <trip id="17" depart="17.00" from="369538882#0" to="422082728#4" departLane="best" departSpeed="max" departPos="random_free"/>
    <trip id="18" depart="18.00" from="422082668" to="28410277#1" departLane="best" departSpeed="max" departPos="random_free"/>
    <trip id="19" depart="19.00" from="156261502#6" to="-156261495#2" departLane="best" departSpeed="max" departPos="random_free"/>
    <trip id="20" depart="20.00" from="303948346#0" to="-367619833#1" departLane="best" departSpeed="max" departPos="random_free"/>
    <trip id="21" depart="21.00" from="-156261502#5" to="448270567#2" departLane="best" departSpeed="max" departPos="random_free"/>
    <trip id="22" depart="22.00" from="450298097" to="28716610" departLane="best" departSpeed="max" departPos="random_free"/>
    <trip id="23" depart="23.00" from="448270567#2" to="156261169" departLane="best" departSpeed="max" departPos="random_free"/>
    <trip id="24" depart="24.00" from="-156261495#2" to="449480717#2" departLane="best" departSpeed="max" departPos="random_free"/>
    <trip id="25" depart="25.00" from="422082717#1" to="303948428" departLane="best" departSpeed="max" departPos="random_free"/>
    <trip id="26" depart="26.00" from="28410277#0" to="286011720#0" departLane="best" departSpeed="max" departPos="random_free"/>
    <trip id="27" depart="27.00" from="-449480716" to="-156261299#0" departLane="best" departSpeed="max" departPos="random_free"/>
</routes>
