<?xml version="1.0" encoding="UTF-8"?>
<!-- generated on 2018-04-26 17:32:06.321382 by $Id$
  options: -n mapgrid.net.xml -e 28 -l <doubleminus>trip-attributes=departLane="best" departSpeed="max" departPos="random_free" -o trips.trips.xml
-->
<routes xmlns:xsi="http://www.w3.org/2001/XMLSchema-instance" xsi:noNamespaceSchemaLocation="http://sumo.dlr.de/xsd/routes_file.xsd">
    <trip id="0" depart="0.00" from="9/1to9/2" to="1/10to0/10" departLane="best" departSpeed="max" departPos="random_free"/>
    <trip id="1" depart="1.00" from="6/6to5/6" to="5/3to5/4" departLane="best" departSpeed="max" departPos="random_free"/>
    <trip id="2" depart="2.00" from="5/0to5/1" to="5/9to5/10" departLane="best" departSpeed="max" departPos="random_free"/>
    <trip id="3" depart="3.00" from="8/4to8/3" to="3/6to3/5" departLane="best" departSpeed="max" departPos="random_free"/>
    <trip id="4" depart="4.00" from="8/6to8/5" to="7/9to6/9" departLane="best" departSpeed="max" departPos="random_free"/>
    <trip id="5" depart="5.00" from="7/5to7/4" to="5/7to4/7" departLane="best" departSpeed="max" departPos="random_free"/>
    <trip id="6" depart="6.00" from="5/6to4/6" to="0/2to0/3" departLane="best" departSpeed="max" departPos="random_free"/>
    <trip id="7" depart="7.00" from="3/9to2/9" to="0/3to0/4" departLane="best" departSpeed="max" departPos="random_free"/>
    <trip id="8" depart="8.00" from="7/8to7/9" to="3/2to4/2" departLane="best" departSpeed="max" departPos="random_free"/>
    <trip id="9" depart="9.00" from="5/2to5/1" to="5/6to6/6" departLane="best" departSpeed="max" departPos="random_free"/>
    <trip id="10" depart="10.00" from="10/9to10/10" to="0/10to1/10" departLane="best" departSpeed="max" departPos="random_free"/>
    <trip id="11" depart="11.00" from="9/4to9/5" to="9/6to8/6" departLane="best" departSpeed="max" departPos="random_free"/>
    <trip id="12" depart="12.00" from="2/1to2/2" to="9/6to8/6" departLane="best" departSpeed="max" departPos="random_free"/>
    <trip id="13" depart="13.00" from="9/6to9/5" to="1/3to2/3" departLane="best" departSpeed="max" departPos="random_free"/>
    <trip id="14" depart="14.00" from="4/9to4/10" to="8/6to9/6" departLane="best" departSpeed="max" departPos="random_free"/>
    <trip id="15" depart="15.00" from="0/1to0/2" to="2/3to3/3" departLane="best" departSpeed="max" departPos="random_free"/>
    <trip id="16" depart="16.00" from="4/6to5/6" to="9/2to10/2" departLane="best" departSpeed="max" departPos="random_free"/>
    <trip id="17" depart="17.00" from="7/0to7/1" to="8/3to8/4" departLane="best" departSpeed="max" departPos="random_free"/>
    <trip id="18" depart="18.00" from="0/7to0/6" to="3/3to2/3" departLane="best" departSpeed="max" departPos="random_free"/>
    <trip id="19" depart="19.00" from="5/7to5/6" to="10/9to10/10" departLane="best" departSpeed="max" departPos="random_free"/>
    <trip id="20" depart="20.00" from="6/8to6/9" to="1/3to1/4" departLane="best" departSpeed="max" departPos="random_free"/>
    <trip id="21" depart="21.00" from="4/9to3/9" to="7/0to7/1" departLane="best" departSpeed="max" departPos="random_free"/>
    <trip id="22" depart="22.00" from="5/5to5/6" to="6/3to7/3" departLane="best" departSpeed="max" departPos="random_free"/>
    <trip id="23" depart="23.00" from="1/8to2/8" to="0/9to1/9" departLane="best" departSpeed="max" departPos="random_free"/>
    <trip id="24" depart="24.00" from="1/6to1/7" to="0/8to1/8" departLane="best" departSpeed="max" departPos="random_free"/>
    <trip id="25" depart="25.00" from="7/9to8/9" to="7/2to7/3" departLane="best" departSpeed="max" departPos="random_free"/>
    <trip id="26" depart="26.00" from="10/1to10/0" to="1/5to2/5" departLane="best" departSpeed="max" departPos="random_free"/>
    <trip id="27" depart="27.00" from="6/3to6/4" to="0/7to0/6" departLane="best" departSpeed="max" departPos="random_free"/>
</routes>
