<?xml version="1.0" encoding="UTF-8"?>

<!-- generated on Thu May  3 22:45:42 2018 by SUMO netgenerate Version 0.32.0
<?xml version="1.0" encoding="UTF-8"?>

<configuration xmlns:xsi="http://www.w3.org/2001/XMLSchema-instance" xsi:noNamespaceSchemaLocation="http://sumo.dlr.de/xsd/netgenerateConfiguration.xsd">

    <grid_network>
        <grid value="true"/>
        <grid.x-number value="11"/>
        <grid.y-number value="11"/>
        <grid.x-length value="98"/>
        <grid.y-length value="98"/>
    </grid_network>

    <output>
        <output-file value="mapgrid.net.xml"/>
    </output>

    <tls_building>
        <tls.guess value="true"/>
    </tls_building>

    <building_defaults>
        <default.speed value="40"/>
    </building_defaults>

</configuration>
-->

<net version="0.27" xmlns:xsi="http://www.w3.org/2001/XMLSchema-instance" xsi:noNamespaceSchemaLocation="http://sumo.dlr.de/xsd/net_file.xsd">

    <location netOffset="0.00,0.00" convBoundary="0.00,0.00,980.00,980.00" origBoundary="0.00,0.00,980.00,980.00" projParameter="!"/>

    <edge id=":0/0_0" function="internal">
        <lane id=":0/0_0_0" index="0" speed="40.00" length="7.90" shape="-1.65,3.25 -1.34,1.11 -0.42,-0.42 1.11,-1.34 3.25,-1.65"/>
    </edge>
    <edge id=":0/0_1" function="internal">
        <lane id=":0/0_1_0" index="0" speed="40.00" length="2.80" shape="-1.65,3.25 -0.83,2.01 0.00,1.60 0.35,1.77"/>
    </edge>
    <edge id=":0/0_4" function="internal">
        <lane id=":0/0_4_0" index="0" speed="40.00" length="2.02" shape="0.35,1.77 0.83,2.01 1.65,3.25"/>
    </edge>
    <edge id=":0/0_2" function="internal">
        <lane id=":0/0_2_0" index="0" speed="40.00" length="2.58" shape="3.25,1.65 2.55,1.75 2.05,2.05 1.75,2.55 1.65,3.25"/>
    </edge>
    <edge id=":0/0_3" function="internal">
        <lane id=":0/0_3_0" index="0" speed="40.00" length="2.20" shape="3.25,1.65 2.01,0.83 1.69,0.19"/>
    </edge>
    <edge id=":0/0_5" function="internal">
        <lane id=":0/0_5_0" index="0" speed="40.00" length="2.62" shape="1.69,0.19 1.60,0.00 2.01,-0.83 3.25,-1.65"/>
    </edge>
    <edge id=":0/1_0" function="internal">
        <lane id=":0/1_0_0" index="0" speed="40.00" length="9.50" shape="-1.65,102.75 -1.65,93.25"/>
    </edge>
    <edge id=":0/1_1" function="internal">
        <lane id=":0/1_1_0" index="0" speed="40.00" length="5.28" shape="-1.65,102.75 -1.25,99.95 -0.05,97.95 0.05,97.89"/>
    </edge>
    <edge id=":0/1_2" function="internal">
        <lane id=":0/1_2_0" index="0" speed="40.00" length="2.41" shape="-1.65,102.75 -0.83,101.51 0.00,101.10"/>
    </edge>
    <edge id=":0/1_9" function="internal">
        <lane id=":0/1_9_0" index="0" speed="40.00" length="5.04" shape="0.05,97.89 1.95,96.75 4.75,96.35"/>
    </edge>
    <edge id=":0/1_10" function="internal">
        <lane id=":0/1_10_0" index="0" speed="40.00" length="2.41" shape="0.00,101.10 0.83,101.51 1.65,102.75"/>
    </edge>
    <edge id=":0/1_3" function="internal">
        <lane id=":0/1_3_0" index="0" speed="40.00" length="5.00" shape="4.75,99.65 3.39,99.84 2.43,100.43 1.84,101.39 1.65,102.75"/>
    </edge>
    <edge id=":0/1_4" function="internal">
        <lane id=":0/1_4_0" index="0" speed="40.00" length="10.32" shape="4.75,99.65 1.95,99.25 -0.05,98.05 -1.25,96.05 -1.65,93.25"/>
    </edge>
    <edge id=":0/1_5" function="internal">
        <lane id=":0/1_5_0" index="0" speed="40.00" length="4.82" shape="4.75,99.65 3.51,98.82 3.10,98.00 3.51,97.17 4.75,96.35"/>
    </edge>
    <edge id=":0/1_6" function="internal">
        <lane id=":0/1_6_0" index="0" speed="40.00" length="5.00" shape="1.65,93.25 1.84,94.61 2.43,95.57 3.39,96.16 4.75,96.35"/>
    </edge>
    <edge id=":0/1_7" function="internal">
        <lane id=":0/1_7_0" index="0" speed="40.00" length="9.50" shape="1.65,93.25 1.65,102.75"/>
    </edge>
    <edge id=":0/1_8" function="internal">
        <lane id=":0/1_8_0" index="0" speed="40.00" length="2.41" shape="1.65,93.25 0.83,94.49 0.00,94.90"/>
    </edge>
    <edge id=":0/1_11" function="internal">
        <lane id=":0/1_11_0" index="0" speed="40.00" length="2.41" shape="0.00,94.90 -0.83,94.49 -1.65,93.25"/>
    </edge>
    <edge id=":0/10_0" function="internal">
        <lane id=":0/10_0_0" index="0" speed="40.00" length="7.90" shape="3.25,981.65 1.11,981.34 -0.43,980.42 -1.34,978.89 -1.65,976.75"/>
    </edge>
    <edge id=":0/10_1" function="internal">
        <lane id=":0/10_1_0" index="0" speed="40.00" length="2.80" shape="3.25,981.65 2.01,980.83 1.60,980.00 1.77,979.65"/>
    </edge>
    <edge id=":0/10_4" function="internal">
        <lane id=":0/10_4_0" index="0" speed="40.00" length="2.02" shape="1.77,979.65 2.01,979.17 3.25,978.35"/>
    </edge>
    <edge id=":0/10_2" function="internal">
        <lane id=":0/10_2_0" index="0" speed="40.00" length="2.58" shape="1.65,976.75 1.75,977.45 2.05,977.95 2.55,978.25 3.25,978.35"/>
    </edge>
    <edge id=":0/10_3" function="internal">
        <lane id=":0/10_3_0" index="0" speed="40.00" length="2.20" shape="1.65,976.75 0.83,977.99 0.19,978.31"/>
    </edge>
    <edge id=":0/10_5" function="internal">
        <lane id=":0/10_5_0" index="0" speed="40.00" length="2.62" shape="0.19,978.31 0.00,978.40 -0.83,977.99 -1.65,976.75"/>
    </edge>
    <edge id=":0/2_0" function="internal">
        <lane id=":0/2_0_0" index="0" speed="40.00" length="9.50" shape="-1.65,200.75 -1.65,191.25"/>
    </edge>
    <edge id=":0/2_1" function="internal">
        <lane id=":0/2_1_0" index="0" speed="40.00" length="5.28" shape="-1.65,200.75 -1.25,197.95 -0.05,195.95 0.05,195.89"/>
    </edge>
    <edge id=":0/2_2" function="internal">
        <lane id=":0/2_2_0" index="0" speed="40.00" length="2.41" shape="-1.65,200.75 -0.83,199.51 0.00,199.10"/>
    </edge>
    <edge id=":0/2_9" function="internal">
        <lane id=":0/2_9_0" index="0" speed="40.00" length="5.04" shape="0.05,195.89 1.95,194.75 4.75,194.35"/>
    </edge>
    <edge id=":0/2_10" function="internal">
        <lane id=":0/2_10_0" index="0" speed="40.00" length="2.41" shape="0.00,199.10 0.83,199.51 1.65,200.75"/>
    </edge>
    <edge id=":0/2_3" function="internal">
        <lane id=":0/2_3_0" index="0" speed="40.00" length="5.00" shape="4.75,197.65 3.39,197.84 2.43,198.43 1.84,199.39 1.65,200.75"/>
    </edge>
    <edge id=":0/2_4" function="internal">
        <lane id=":0/2_4_0" index="0" speed="40.00" length="10.32" shape="4.75,197.65 1.95,197.25 -0.05,196.05 -1.25,194.05 -1.65,191.25"/>
    </edge>
    <edge id=":0/2_5" function="internal">
        <lane id=":0/2_5_0" index="0" speed="40.00" length="4.82" shape="4.75,197.65 3.51,196.83 3.10,196.00 3.51,195.18 4.75,194.35"/>
    </edge>
    <edge id=":0/2_6" function="internal">
        <lane id=":0/2_6_0" index="0" speed="40.00" length="5.00" shape="1.65,191.25 1.84,192.61 2.43,193.57 3.39,194.16 4.75,194.35"/>
    </edge>
    <edge id=":0/2_7" function="internal">
        <lane id=":0/2_7_0" index="0" speed="40.00" length="9.50" shape="1.65,191.25 1.65,200.75"/>
    </edge>
    <edge id=":0/2_8" function="internal">
        <lane id=":0/2_8_0" index="0" speed="40.00" length="2.41" shape="1.65,191.25 0.83,192.49 0.00,192.90"/>
    </edge>
    <edge id=":0/2_11" function="internal">
        <lane id=":0/2_11_0" index="0" speed="40.00" length="2.41" shape="0.00,192.90 -0.83,192.49 -1.65,191.25"/>
    </edge>
    <edge id=":0/3_0" function="internal">
        <lane id=":0/3_0_0" index="0" speed="40.00" length="9.50" shape="-1.65,298.75 -1.65,289.25"/>
    </edge>
    <edge id=":0/3_1" function="internal">
        <lane id=":0/3_1_0" index="0" speed="40.00" length="5.28" shape="-1.65,298.75 -1.25,295.95 -0.05,293.95 0.05,293.89"/>
    </edge>
    <edge id=":0/3_2" function="internal">
        <lane id=":0/3_2_0" index="0" speed="40.00" length="2.41" shape="-1.65,298.75 -0.83,297.51 0.00,297.10"/>
    </edge>
    <edge id=":0/3_9" function="internal">
        <lane id=":0/3_9_0" index="0" speed="40.00" length="5.04" shape="0.05,293.89 1.95,292.75 4.75,292.35"/>
    </edge>
    <edge id=":0/3_10" function="internal">
        <lane id=":0/3_10_0" index="0" speed="40.00" length="2.41" shape="0.00,297.10 0.83,297.51 1.65,298.75"/>
    </edge>
    <edge id=":0/3_3" function="internal">
        <lane id=":0/3_3_0" index="0" speed="40.00" length="5.00" shape="4.75,295.65 3.39,295.84 2.43,296.42 1.84,297.39 1.65,298.75"/>
    </edge>
    <edge id=":0/3_4" function="internal">
        <lane id=":0/3_4_0" index="0" speed="40.00" length="10.32" shape="4.75,295.65 1.95,295.25 -0.05,294.05 -1.25,292.05 -1.65,289.25"/>
    </edge>
    <edge id=":0/3_5" function="internal">
        <lane id=":0/3_5_0" index="0" speed="40.00" length="4.82" shape="4.75,295.65 3.51,294.83 3.10,294.00 3.51,293.18 4.75,292.35"/>
    </edge>
    <edge id=":0/3_6" function="internal">
        <lane id=":0/3_6_0" index="0" speed="40.00" length="5.00" shape="1.65,289.25 1.84,290.61 2.43,291.58 3.39,292.16 4.75,292.35"/>
    </edge>
    <edge id=":0/3_7" function="internal">
        <lane id=":0/3_7_0" index="0" speed="40.00" length="9.50" shape="1.65,289.25 1.65,298.75"/>
    </edge>
    <edge id=":0/3_8" function="internal">
        <lane id=":0/3_8_0" index="0" speed="40.00" length="2.41" shape="1.65,289.25 0.83,290.49 0.00,290.90"/>
    </edge>
    <edge id=":0/3_11" function="internal">
        <lane id=":0/3_11_0" index="0" speed="40.00" length="2.41" shape="0.00,290.90 -0.83,290.49 -1.65,289.25"/>
    </edge>
    <edge id=":0/4_0" function="internal">
        <lane id=":0/4_0_0" index="0" speed="40.00" length="9.50" shape="-1.65,396.75 -1.65,387.25"/>
    </edge>
    <edge id=":0/4_1" function="internal">
        <lane id=":0/4_1_0" index="0" speed="40.00" length="5.28" shape="-1.65,396.75 -1.25,393.95 -0.05,391.95 0.05,391.89"/>
    </edge>
    <edge id=":0/4_2" function="internal">
        <lane id=":0/4_2_0" index="0" speed="40.00" length="2.41" shape="-1.65,396.75 -0.83,395.51 0.00,395.10"/>
    </edge>
    <edge id=":0/4_9" function="internal">
        <lane id=":0/4_9_0" index="0" speed="40.00" length="5.04" shape="0.05,391.89 1.95,390.75 4.75,390.35"/>
    </edge>
    <edge id=":0/4_10" function="internal">
        <lane id=":0/4_10_0" index="0" speed="40.00" length="2.41" shape="0.00,395.10 0.83,395.51 1.65,396.75"/>
    </edge>
    <edge id=":0/4_3" function="internal">
        <lane id=":0/4_3_0" index="0" speed="40.00" length="5.00" shape="4.75,393.65 3.39,393.84 2.43,394.42 1.84,395.39 1.65,396.75"/>
    </edge>
    <edge id=":0/4_4" function="internal">
        <lane id=":0/4_4_0" index="0" speed="40.00" length="10.32" shape="4.75,393.65 1.95,393.25 -0.05,392.05 -1.25,390.05 -1.65,387.25"/>
    </edge>
    <edge id=":0/4_5" function="internal">
        <lane id=":0/4_5_0" index="0" speed="40.00" length="4.82" shape="4.75,393.65 3.51,392.83 3.10,392.00 3.51,391.18 4.75,390.35"/>
    </edge>
    <edge id=":0/4_6" function="internal">
        <lane id=":0/4_6_0" index="0" speed="40.00" length="5.00" shape="1.65,387.25 1.84,388.61 2.43,389.58 3.39,390.16 4.75,390.35"/>
    </edge>
    <edge id=":0/4_7" function="internal">
        <lane id=":0/4_7_0" index="0" speed="40.00" length="9.50" shape="1.65,387.25 1.65,396.75"/>
    </edge>
    <edge id=":0/4_8" function="internal">
        <lane id=":0/4_8_0" index="0" speed="40.00" length="2.41" shape="1.65,387.25 0.83,388.49 0.00,388.90"/>
    </edge>
    <edge id=":0/4_11" function="internal">
        <lane id=":0/4_11_0" index="0" speed="40.00" length="2.41" shape="0.00,388.90 -0.83,388.49 -1.65,387.25"/>
    </edge>
    <edge id=":0/5_0" function="internal">
        <lane id=":0/5_0_0" index="0" speed="40.00" length="9.50" shape="-1.65,494.75 -1.65,485.25"/>
    </edge>
    <edge id=":0/5_1" function="internal">
        <lane id=":0/5_1_0" index="0" speed="40.00" length="5.28" shape="-1.65,494.75 -1.25,491.95 -0.05,489.95 0.05,489.89"/>
    </edge>
    <edge id=":0/5_2" function="internal">
        <lane id=":0/5_2_0" index="0" speed="40.00" length="2.41" shape="-1.65,494.75 -0.83,493.51 0.00,493.10"/>
    </edge>
    <edge id=":0/5_9" function="internal">
        <lane id=":0/5_9_0" index="0" speed="40.00" length="5.04" shape="0.05,489.89 1.95,488.75 4.75,488.35"/>
    </edge>
    <edge id=":0/5_10" function="internal">
        <lane id=":0/5_10_0" index="0" speed="40.00" length="2.41" shape="0.00,493.10 0.83,493.51 1.65,494.75"/>
    </edge>
    <edge id=":0/5_3" function="internal">
        <lane id=":0/5_3_0" index="0" speed="40.00" length="5.00" shape="4.75,491.65 3.39,491.84 2.43,492.42 1.84,493.39 1.65,494.75"/>
    </edge>
    <edge id=":0/5_4" function="internal">
        <lane id=":0/5_4_0" index="0" speed="40.00" length="10.32" shape="4.75,491.65 1.95,491.25 -0.05,490.05 -1.25,488.05 -1.65,485.25"/>
    </edge>
    <edge id=":0/5_5" function="internal">
        <lane id=":0/5_5_0" index="0" speed="40.00" length="4.82" shape="4.75,491.65 3.51,490.82 3.10,490.00 3.51,489.18 4.75,488.35"/>
    </edge>
    <edge id=":0/5_6" function="internal">
        <lane id=":0/5_6_0" index="0" speed="40.00" length="5.00" shape="1.65,485.25 1.84,486.61 2.43,487.58 3.39,488.16 4.75,488.35"/>
    </edge>
    <edge id=":0/5_7" function="internal">
        <lane id=":0/5_7_0" index="0" speed="40.00" length="9.50" shape="1.65,485.25 1.65,494.75"/>
    </edge>
    <edge id=":0/5_8" function="internal">
        <lane id=":0/5_8_0" index="0" speed="40.00" length="2.41" shape="1.65,485.25 0.83,486.49 0.00,486.90"/>
    </edge>
    <edge id=":0/5_11" function="internal">
        <lane id=":0/5_11_0" index="0" speed="40.00" length="2.41" shape="0.00,486.90 -0.83,486.49 -1.65,485.25"/>
    </edge>
    <edge id=":0/6_0" function="internal">
        <lane id=":0/6_0_0" index="0" speed="40.00" length="9.50" shape="-1.65,592.75 -1.65,583.25"/>
    </edge>
    <edge id=":0/6_1" function="internal">
        <lane id=":0/6_1_0" index="0" speed="40.00" length="5.28" shape="-1.65,592.75 -1.25,589.95 -0.05,587.95 0.05,587.89"/>
    </edge>
    <edge id=":0/6_2" function="internal">
        <lane id=":0/6_2_0" index="0" speed="40.00" length="2.41" shape="-1.65,592.75 -0.83,591.51 0.00,591.10"/>
    </edge>
    <edge id=":0/6_9" function="internal">
        <lane id=":0/6_9_0" index="0" speed="40.00" length="5.04" shape="0.05,587.89 1.95,586.75 4.75,586.35"/>
    </edge>
    <edge id=":0/6_10" function="internal">
        <lane id=":0/6_10_0" index="0" speed="40.00" length="2.41" shape="0.00,591.10 0.83,591.51 1.65,592.75"/>
    </edge>
    <edge id=":0/6_3" function="internal">
        <lane id=":0/6_3_0" index="0" speed="40.00" length="5.00" shape="4.75,589.65 3.39,589.84 2.43,590.42 1.84,591.39 1.65,592.75"/>
    </edge>
    <edge id=":0/6_4" function="internal">
        <lane id=":0/6_4_0" index="0" speed="40.00" length="10.32" shape="4.75,589.65 1.95,589.25 -0.05,588.05 -1.25,586.05 -1.65,583.25"/>
    </edge>
    <edge id=":0/6_5" function="internal">
        <lane id=":0/6_5_0" index="0" speed="40.00" length="4.82" shape="4.75,589.65 3.51,588.82 3.10,588.00 3.51,587.17 4.75,586.35"/>
    </edge>
    <edge id=":0/6_6" function="internal">
        <lane id=":0/6_6_0" index="0" speed="40.00" length="5.00" shape="1.65,583.25 1.84,584.61 2.43,585.58 3.39,586.16 4.75,586.35"/>
    </edge>
    <edge id=":0/6_7" function="internal">
        <lane id=":0/6_7_0" index="0" speed="40.00" length="9.50" shape="1.65,583.25 1.65,592.75"/>
    </edge>
    <edge id=":0/6_8" function="internal">
        <lane id=":0/6_8_0" index="0" speed="40.00" length="2.41" shape="1.65,583.25 0.83,584.49 0.00,584.90"/>
    </edge>
    <edge id=":0/6_11" function="internal">
        <lane id=":0/6_11_0" index="0" speed="40.00" length="2.41" shape="0.00,584.90 -0.83,584.49 -1.65,583.25"/>
    </edge>
    <edge id=":0/7_0" function="internal">
        <lane id=":0/7_0_0" index="0" speed="40.00" length="9.50" shape="-1.65,690.75 -1.65,681.25"/>
    </edge>
    <edge id=":0/7_1" function="internal">
        <lane id=":0/7_1_0" index="0" speed="40.00" length="5.28" shape="-1.65,690.75 -1.25,687.95 -0.05,685.95 0.05,685.89"/>
    </edge>
    <edge id=":0/7_2" function="internal">
        <lane id=":0/7_2_0" index="0" speed="40.00" length="2.41" shape="-1.65,690.75 -0.83,689.51 0.00,689.10"/>
    </edge>
    <edge id=":0/7_9" function="internal">
        <lane id=":0/7_9_0" index="0" speed="40.00" length="5.04" shape="0.05,685.89 1.95,684.75 4.75,684.35"/>
    </edge>
    <edge id=":0/7_10" function="internal">
        <lane id=":0/7_10_0" index="0" speed="40.00" length="2.41" shape="0.00,689.10 0.83,689.51 1.65,690.75"/>
    </edge>
    <edge id=":0/7_3" function="internal">
        <lane id=":0/7_3_0" index="0" speed="40.00" length="5.00" shape="4.75,687.65 3.39,687.84 2.43,688.42 1.84,689.39 1.65,690.75"/>
    </edge>
    <edge id=":0/7_4" function="internal">
        <lane id=":0/7_4_0" index="0" speed="40.00" length="10.32" shape="4.75,687.65 1.95,687.25 -0.05,686.05 -1.25,684.05 -1.65,681.25"/>
    </edge>
    <edge id=":0/7_5" function="internal">
        <lane id=":0/7_5_0" index="0" speed="40.00" length="4.82" shape="4.75,687.65 3.51,686.82 3.10,686.00 3.51,685.17 4.75,684.35"/>
    </edge>
    <edge id=":0/7_6" function="internal">
        <lane id=":0/7_6_0" index="0" speed="40.00" length="5.00" shape="1.65,681.25 1.84,682.61 2.43,683.57 3.39,684.16 4.75,684.35"/>
    </edge>
    <edge id=":0/7_7" function="internal">
        <lane id=":0/7_7_0" index="0" speed="40.00" length="9.50" shape="1.65,681.25 1.65,690.75"/>
    </edge>
    <edge id=":0/7_8" function="internal">
        <lane id=":0/7_8_0" index="0" speed="40.00" length="2.41" shape="1.65,681.25 0.83,682.49 0.00,682.90"/>
    </edge>
    <edge id=":0/7_11" function="internal">
        <lane id=":0/7_11_0" index="0" speed="40.00" length="2.41" shape="0.00,682.90 -0.83,682.49 -1.65,681.25"/>
    </edge>
    <edge id=":0/8_0" function="internal">
        <lane id=":0/8_0_0" index="0" speed="40.00" length="9.50" shape="-1.65,788.75 -1.65,779.25"/>
    </edge>
    <edge id=":0/8_1" function="internal">
        <lane id=":0/8_1_0" index="0" speed="40.00" length="5.28" shape="-1.65,788.75 -1.25,785.95 -0.05,783.95 0.05,783.89"/>
    </edge>
    <edge id=":0/8_2" function="internal">
        <lane id=":0/8_2_0" index="0" speed="40.00" length="2.41" shape="-1.65,788.75 -0.83,787.51 0.00,787.10"/>
    </edge>
    <edge id=":0/8_9" function="internal">
        <lane id=":0/8_9_0" index="0" speed="40.00" length="5.04" shape="0.05,783.89 1.95,782.75 4.75,782.35"/>
    </edge>
    <edge id=":0/8_10" function="internal">
        <lane id=":0/8_10_0" index="0" speed="40.00" length="2.41" shape="0.00,787.10 0.83,787.51 1.65,788.75"/>
    </edge>
    <edge id=":0/8_3" function="internal">
        <lane id=":0/8_3_0" index="0" speed="40.00" length="5.00" shape="4.75,785.65 3.39,785.84 2.43,786.42 1.84,787.39 1.65,788.75"/>
    </edge>
    <edge id=":0/8_4" function="internal">
        <lane id=":0/8_4_0" index="0" speed="40.00" length="10.32" shape="4.75,785.65 1.95,785.25 -0.05,784.05 -1.25,782.05 -1.65,779.25"/>
    </edge>
    <edge id=":0/8_5" function="internal">
        <lane id=":0/8_5_0" index="0" speed="40.00" length="4.82" shape="4.75,785.65 3.51,784.82 3.10,784.00 3.51,783.17 4.75,782.35"/>
    </edge>
    <edge id=":0/8_6" function="internal">
        <lane id=":0/8_6_0" index="0" speed="40.00" length="5.00" shape="1.65,779.25 1.84,780.61 2.43,781.57 3.39,782.16 4.75,782.35"/>
    </edge>
    <edge id=":0/8_7" function="internal">
        <lane id=":0/8_7_0" index="0" speed="40.00" length="9.50" shape="1.65,779.25 1.65,788.75"/>
    </edge>
    <edge id=":0/8_8" function="internal">
        <lane id=":0/8_8_0" index="0" speed="40.00" length="2.41" shape="1.65,779.25 0.83,780.49 0.00,780.90"/>
    </edge>
    <edge id=":0/8_11" function="internal">
        <lane id=":0/8_11_0" index="0" speed="40.00" length="2.41" shape="0.00,780.90 -0.83,780.49 -1.65,779.25"/>
    </edge>
    <edge id=":0/9_0" function="internal">
        <lane id=":0/9_0_0" index="0" speed="40.00" length="9.50" shape="-1.65,886.75 -1.65,877.25"/>
    </edge>
    <edge id=":0/9_1" function="internal">
        <lane id=":0/9_1_0" index="0" speed="40.00" length="5.28" shape="-1.65,886.75 -1.25,883.95 -0.05,881.95 0.05,881.89"/>
    </edge>
    <edge id=":0/9_2" function="internal">
        <lane id=":0/9_2_0" index="0" speed="40.00" length="2.41" shape="-1.65,886.75 -0.83,885.51 0.00,885.10"/>
    </edge>
    <edge id=":0/9_9" function="internal">
        <lane id=":0/9_9_0" index="0" speed="40.00" length="5.04" shape="0.05,881.89 1.95,880.75 4.75,880.35"/>
    </edge>
    <edge id=":0/9_10" function="internal">
        <lane id=":0/9_10_0" index="0" speed="40.00" length="2.41" shape="0.00,885.10 0.83,885.51 1.65,886.75"/>
    </edge>
    <edge id=":0/9_3" function="internal">
        <lane id=":0/9_3_0" index="0" speed="40.00" length="5.00" shape="4.75,883.65 3.39,883.84 2.42,884.42 1.84,885.39 1.65,886.75"/>
    </edge>
    <edge id=":0/9_4" function="internal">
        <lane id=":0/9_4_0" index="0" speed="40.00" length="10.32" shape="4.75,883.65 1.95,883.25 -0.05,882.05 -1.25,880.05 -1.65,877.25"/>
    </edge>
    <edge id=":0/9_5" function="internal">
        <lane id=":0/9_5_0" index="0" speed="40.00" length="4.82" shape="4.75,883.65 3.51,882.82 3.10,882.00 3.51,881.17 4.75,880.35"/>
    </edge>
    <edge id=":0/9_6" function="internal">
        <lane id=":0/9_6_0" index="0" speed="40.00" length="5.00" shape="1.65,877.25 1.84,878.61 2.43,879.57 3.39,880.16 4.75,880.35"/>
    </edge>
    <edge id=":0/9_7" function="internal">
        <lane id=":0/9_7_0" index="0" speed="40.00" length="9.50" shape="1.65,877.25 1.65,886.75"/>
    </edge>
    <edge id=":0/9_8" function="internal">
        <lane id=":0/9_8_0" index="0" speed="40.00" length="2.41" shape="1.65,877.25 0.83,878.49 0.00,878.90"/>
    </edge>
    <edge id=":0/9_11" function="internal">
        <lane id=":0/9_11_0" index="0" speed="40.00" length="2.41" shape="0.00,878.90 -0.83,878.49 -1.65,877.25"/>
    </edge>
    <edge id=":1/0_0" function="internal">
        <lane id=":1/0_0_0" index="0" speed="40.00" length="5.00" shape="96.35,4.75 96.16,3.39 95.57,2.43 94.61,1.84 93.25,1.65"/>
    </edge>
    <edge id=":1/0_1" function="internal">
        <lane id=":1/0_1_0" index="0" speed="40.00" length="10.32" shape="96.35,4.75 96.75,1.95 97.95,-0.05 99.95,-1.25 102.75,-1.65"/>
    </edge>
    <edge id=":1/0_2" function="internal">
        <lane id=":1/0_2_0" index="0" speed="40.00" length="4.82" shape="96.35,4.75 97.18,3.51 98.00,3.10 98.83,3.51 99.65,4.75"/>
    </edge>
    <edge id=":1/0_3" function="internal">
        <lane id=":1/0_3_0" index="0" speed="40.00" length="5.00" shape="102.75,1.65 101.39,1.84 100.43,2.43 99.84,3.39 99.65,4.75"/>
    </edge>
    <edge id=":1/0_4" function="internal">
        <lane id=":1/0_4_0" index="0" speed="40.00" length="9.50" shape="102.75,1.65 93.25,1.65"/>
    </edge>
    <edge id=":1/0_5" function="internal">
        <lane id=":1/0_5_0" index="0" speed="40.00" length="2.41" shape="102.75,1.65 101.51,0.83 101.10,0.00"/>
    </edge>
    <edge id=":1/0_9" function="internal">
        <lane id=":1/0_9_0" index="0" speed="40.00" length="2.41" shape="101.10,0.00 101.51,-0.83 102.75,-1.65"/>
    </edge>
    <edge id=":1/0_6" function="internal">
        <lane id=":1/0_6_0" index="0" speed="40.00" length="9.50" shape="93.25,-1.65 102.75,-1.65"/>
    </edge>
    <edge id=":1/0_7" function="internal">
        <lane id=":1/0_7_0" index="0" speed="40.00" length="5.28" shape="93.25,-1.65 96.05,-1.25 98.05,-0.05 98.11,0.05"/>
    </edge>
    <edge id=":1/0_8" function="internal">
        <lane id=":1/0_8_0" index="0" speed="40.00" length="2.41" shape="93.25,-1.65 94.49,-0.83 94.90,0.00"/>
    </edge>
    <edge id=":1/0_10" function="internal">
        <lane id=":1/0_10_0" index="0" speed="40.00" length="5.04" shape="98.11,0.05 99.25,1.95 99.65,4.75"/>
    </edge>
    <edge id=":1/0_11" function="internal">
        <lane id=":1/0_11_0" index="0" speed="40.00" length="2.41" shape="94.90,0.00 94.49,0.83 93.25,1.65"/>
    </edge>
    <edge id=":1/1_0" function="internal">
        <lane id=":1/1_0_0" index="0" speed="40.00" length="5.00" shape="96.35,102.75 96.16,101.39 95.57,100.43 94.61,99.84 93.25,99.65"/>
    </edge>
    <edge id=":1/1_1" function="internal">
        <lane id=":1/1_1_0" index="0" speed="40.00" length="9.50" shape="96.35,102.75 96.35,93.25"/>
    </edge>
    <edge id=":1/1_2" function="internal">
        <lane id=":1/1_2_0" index="0" speed="40.00" length="5.28" shape="96.35,102.75 96.75,99.95 97.95,97.95 98.05,97.89"/>
    </edge>
    <edge id=":1/1_3" function="internal">
        <lane id=":1/1_3_0" index="0" speed="40.00" length="2.41" shape="96.35,102.75 97.18,101.51 98.00,101.10"/>
    </edge>
    <edge id=":1/1_16" function="internal">
        <lane id=":1/1_16_0" index="0" speed="40.00" length="5.04" shape="98.05,97.89 99.95,96.75 102.75,96.35"/>
    </edge>
    <edge id=":1/1_17" function="internal">
        <lane id=":1/1_17_0" index="0" speed="40.00" length="2.41" shape="98.00,101.10 98.83,101.51 99.65,102.75"/>
    </edge>
    <edge id=":1/1_4" function="internal">
        <lane id=":1/1_4_0" index="0" speed="40.00" length="5.00" shape="102.75,99.65 101.39,99.84 100.43,100.43 99.84,101.39 99.65,102.75"/>
    </edge>
    <edge id=":1/1_5" function="internal">
        <lane id=":1/1_5_0" index="0" speed="40.00" length="9.50" shape="102.75,99.65 93.25,99.65"/>
    </edge>
    <edge id=":1/1_6" function="internal">
        <lane id=":1/1_6_0" index="0" speed="40.00" length="10.32" shape="102.75,99.65 99.95,99.25 97.95,98.05 96.75,96.05 96.35,93.25"/>
    </edge>
    <edge id=":1/1_7" function="internal">
        <lane id=":1/1_7_0" index="0" speed="40.00" length="4.82" shape="102.75,99.65 101.51,98.82 101.10,98.00 101.51,97.17 102.75,96.35"/>
    </edge>
    <edge id=":1/1_8" function="internal">
        <lane id=":1/1_8_0" index="0" speed="40.00" length="5.00" shape="99.65,93.25 99.84,94.61 100.43,95.57 101.39,96.16 102.75,96.35"/>
    </edge>
    <edge id=":1/1_9" function="internal">
        <lane id=":1/1_9_0" index="0" speed="40.00" length="9.50" shape="99.65,93.25 99.65,102.75"/>
    </edge>
    <edge id=":1/1_10" function="internal">
        <lane id=":1/1_10_0" index="0" speed="40.00" length="5.28" shape="99.65,93.25 99.25,96.05 98.05,98.05 97.95,98.11"/>
    </edge>
    <edge id=":1/1_11" function="internal">
        <lane id=":1/1_11_0" index="0" speed="40.00" length="2.41" shape="99.65,93.25 98.82,94.49 98.00,94.90"/>
    </edge>
    <edge id=":1/1_18" function="internal">
        <lane id=":1/1_18_0" index="0" speed="40.00" length="5.04" shape="97.95,98.11 96.05,99.25 93.25,99.65"/>
    </edge>
    <edge id=":1/1_19" function="internal">
        <lane id=":1/1_19_0" index="0" speed="40.00" length="2.41" shape="98.00,94.90 97.17,94.49 96.35,93.25"/>
    </edge>
    <edge id=":1/1_12" function="internal">
        <lane id=":1/1_12_0" index="0" speed="40.00" length="5.00" shape="93.25,96.35 94.61,96.16 95.57,95.57 96.16,94.61 96.35,93.25"/>
    </edge>
    <edge id=":1/1_13" function="internal">
        <lane id=":1/1_13_0" index="0" speed="40.00" length="9.50" shape="93.25,96.35 102.75,96.35"/>
    </edge>
    <edge id=":1/1_14" function="internal">
        <lane id=":1/1_14_0" index="0" speed="40.00" length="10.32" shape="93.25,96.35 96.05,96.75 98.05,97.95 99.25,99.95 99.65,102.75"/>
    </edge>
    <edge id=":1/1_15" function="internal">
        <lane id=":1/1_15_0" index="0" speed="40.00" length="4.82" shape="93.25,96.35 94.49,97.18 94.90,98.00 94.49,98.83 93.25,99.65"/>
    </edge>
    <edge id=":1/10_0" function="internal">
        <lane id=":1/10_0_0" index="0" speed="40.00" length="9.50" shape="102.75,981.65 93.25,981.65"/>
    </edge>
    <edge id=":1/10_1" function="internal">
        <lane id=":1/10_1_0" index="0" speed="40.00" length="5.28" shape="102.75,981.65 99.95,981.25 97.95,980.05 97.89,979.95"/>
    </edge>
    <edge id=":1/10_2" function="internal">
        <lane id=":1/10_2_0" index="0" speed="40.00" length="2.41" shape="102.75,981.65 101.51,980.83 101.10,980.00"/>
    </edge>
    <edge id=":1/10_9" function="internal">
        <lane id=":1/10_9_0" index="0" speed="40.00" length="5.04" shape="97.89,979.95 96.75,978.05 96.35,975.25"/>
    </edge>
    <edge id=":1/10_10" function="internal">
        <lane id=":1/10_10_0" index="0" speed="40.00" length="2.41" shape="101.10,980.00 101.51,979.17 102.75,978.35"/>
    </edge>
    <edge id=":1/10_3" function="internal">
        <lane id=":1/10_3_0" index="0" speed="40.00" length="5.00" shape="99.65,975.25 99.84,976.61 100.43,977.57 101.39,978.16 102.75,978.35"/>
    </edge>
    <edge id=":1/10_4" function="internal">
        <lane id=":1/10_4_0" index="0" speed="40.00" length="10.32" shape="99.65,975.25 99.25,978.05 98.05,980.05 96.05,981.25 93.25,981.65"/>
    </edge>
    <edge id=":1/10_5" function="internal">
        <lane id=":1/10_5_0" index="0" speed="40.00" length="4.82" shape="99.65,975.25 98.82,976.49 98.00,976.90 97.17,976.49 96.35,975.25"/>
    </edge>
    <edge id=":1/10_6" function="internal">
        <lane id=":1/10_6_0" index="0" speed="40.00" length="5.00" shape="93.25,978.35 94.61,978.16 95.58,977.58 96.16,976.61 96.35,975.25"/>
    </edge>
    <edge id=":1/10_7" function="internal">
        <lane id=":1/10_7_0" index="0" speed="40.00" length="9.50" shape="93.25,978.35 102.75,978.35"/>
    </edge>
    <edge id=":1/10_8" function="internal">
        <lane id=":1/10_8_0" index="0" speed="40.00" length="2.41" shape="93.25,978.35 94.49,979.17 94.90,980.00"/>
    </edge>
    <edge id=":1/10_11" function="internal">
        <lane id=":1/10_11_0" index="0" speed="40.00" length="2.41" shape="94.90,980.00 94.49,980.83 93.25,981.65"/>
    </edge>
    <edge id=":1/2_0" function="internal">