<?xml version="1.0" encoding="UTF-8"?>
<!-- generated on 2018-05-03 22:45:42.715286 by $Id$
  options: -n mapgrid.net.xml -e 28 -l <doubleminus>trip-attributes=departLane="best" departSpeed="max" departPos="random_free" -o trips.trips.xml
-->
<routes xmlns:xsi="http://www.w3.org/2001/XMLSchema-instance" xsi:noNamespaceSchemaLocation="http://sumo.dlr.de/xsd/routes_file.xsd">
    <trip id="0" depart="0.00" from="5/8to5/9" to="4/1to3/1" departLane="best" departSpeed="max" departPos="random_free"/>
    <trip id="1" depart="1.00" from="4/0to4/1" to="3/9to3/10" departLane="best" departSpeed="max" departPos="random_free"/>
    <trip id="2" depart="2.00" from="4/8to5/8" to="10/9to9/9" departLane="best" departSpeed="max" departPos="random_free"/>
    <trip id="3" depart="3.00" from="5/2to5/3" to="1/9to2/9" departLane="best" departSpeed="max" departPos="random_free"/>
    <trip id="4" depart="4.00" from="6/6to5/6" to="4/10to5/10" departLane="best" departSpeed="max" departPos="random_free"/>
    <trip id="5" depart="5.00" from="6/2to7/2" to="7/0to6/0" departLane="best" departSpeed="max" departPos="random_free"/>
    <trip id="6" depart="6.00" from="8/5to8/4" to="5/4to5/5" departLane="best" departSpeed="max" departPos="random_free"/>
    <trip id="7" depart="7.00" from="2/8to1/8" to="10/9to9/9" departLane="best" departSpeed="max" departPos="random_free"/>
    <trip id="8" depart="8.00" from="5/10to6/10" to="3/2to3/1" departLane="best" departSpeed="max" departPos="random_free"/>
    <trip id="9" depart="9.00" from="7/1to6/1" to="4/1to5/1" departLane="best" departSpeed="max" departPos="random_free"/>
    <trip id="10" depart="10.00" from="7/5to6/5" to="0/9to1/9" departLane="best" departSpeed="max" departPos="random_free"/>
    <trip id="11" depart="11.00" from="1/7to0/7" to="2/2to1/2" departLane="best" departSpeed="max" departPos="random_free"/>
    <trip id="12" depart="12.00" from="3/8to4/8" to="5/3to5/4" departLane="best" departSpeed="max" departPos="random_free"/>
    <trip id="13" depart="13.00" from="3/5to2/5" to="4/5to5/5" departLane="best" departSpeed="max" departPos="random_free"/>
    <trip id="14" depart="14.00" from="6/4to6/5" to="8/5to9/5" departLane="best" departSpeed="max" departPos="random_free"/>
    <trip id="15" depart="15.00" from="3/4to2/4" to="6/1to7/1" departLane="best" departSpeed="max" departPos="random_free"/>
    <trip id="16" depart="16.00" from="2/9to2/10" to="3/10to2/10" departLane="best" departSpeed="max" departPos="random_free"/>
    <trip id="17" depart="17.00" from="8/8to9/8" to="0/4to0/3" departLane="best" departSpeed="max" departPos="random_free"/>
    <trip id="18" depart="18.00" from="2/8to2/7" to="9/3to9/2" departLane="best" departSpeed="max" departPos="random_free"/>
    <trip id="19" depart="19.00" from="2/9to2/8" to="9/1to9/2" departLane="best" departSpeed="max" departPos="random_free"/>
    <trip id="20" depart="20.00" from="6/3to5/3" to="5/5to5/4" departLane="best" departSpeed="max" departPos="random_free"/>
    <trip id="21" depart="21.00" from="0/4to0/3" to="0/9to1/9" departLane="best" departSpeed="max" departPos="random_free"/>
    <trip id="22" depart="22.00" from="9/1to9/2" to="3/1to4/1" departLane="best" departSpeed="max" departPos="random_free"/>
    <trip id="23" depart="23.00" from="7/6to7/5" to="1/7to0/7" departLane="best" departSpeed="max" departPos="random_free"/>
    <trip id="24" depart="24.00" from="8/0to8/1" to="0/10to0/9" departLane="best" departSpeed="max" departPos="random_free"/>
    <trip id="25" depart="25.00" from="2/3to2/2" to="5/5to4/5" departLane="best" departSpeed="max" departPos="random_free"/>
    <trip id="26" depart="26.00" from="9/10to8/10" to="7/2to6/2" departLane="best" departSpeed="max" departPos="random_free"/>
    <trip id="27" depart="27.00" from="0/8to0/9" to="5/0to6/0" departLane="best" departSpeed="max" departPos="random_free"/>
</routes>
