<?xml version="1.0" encoding="UTF-8"?>
<!-- generated on 2018-04-08 20:38:08.805431 by $Id$
  options: -n mapgrid.net.xml -e 28 -l <doubleminus>trip-attributes=departLane="best" departSpeed="max" departPos="random_free" -o trips.trips.xml
-->
<routes xmlns:xsi="http://www.w3.org/2001/XMLSchema-instance" xsi:noNamespaceSchemaLocation="http://sumo.dlr.de/xsd/routes_file.xsd">
    <trip id="0" depart="0.00" from="9/6to9/7" to="8/9to9/9" departLane="best" departSpeed="max" departPos="random_free"/>
    <trip id="1" depart="1.00" from="0/4to0/5" to="6/8to6/9" departLane="best" departSpeed="max" departPos="random_free"/>
    <trip id="2" depart="2.00" from="9/0to9/1" to="9/10to9/9" departLane="best" departSpeed="max" departPos="random_free"/>
    <trip id="3" depart="3.00" from="3/9to4/9" to="4/8to4/9" departLane="best" departSpeed="max" departPos="random_free"/>
    <trip id="4" depart="4.00" from="6/7to5/7" to="1/9to0/9" departLane="best" departSpeed="max" departPos="random_free"/>
    <trip id="5" depart="5.00" from="4/5to5/5" to="6/9to5/9" departLane="best" departSpeed="max" departPos="random_free"/>
    <trip id="6" depart="6.00" from="2/8to3/8" to="8/9to8/10" departLane="best" departSpeed="max" departPos="random_free"/>
    <trip id="7" depart="7.00" from="8/5to8/4" to="8/4to8/5" departLane="best" departSpeed="max" departPos="random_free"/>
    <trip id="8" depart="8.00" from="1/10to1/9" to="7/5to7/6" departLane="best" departSpeed="max" departPos="random_free"/>
    <trip id="9" depart="9.00" from="8/3to8/2" to="9/7to10/7" departLane="best" departSpeed="max" departPos="random_free"/>
    <trip id="10" depart="10.00" from="5/0to4/0" to="0/5to0/4" departLane="best" departSpeed="max" departPos="random_free"/>
    <trip id="11" depart="11.00" from="6/9to5/9" to="6/0to6/1" departLane="best" departSpeed="max" departPos="random_free"/>
    <trip id="12" depart="12.00" from="10/2to10/1" to="8/0to7/0" departLane="best" departSpeed="max" departPos="random_free"/>
    <trip id="13" depart="13.00" from="1/2to1/1" to="0/2to1/2" departLane="best" departSpeed="max" departPos="random_free"/>
    <trip id="14" depart="14.00" from="2/8to1/8" to="7/4to7/5" departLane="best" departSpeed="max" departPos="random_free"/>
    <trip id="15" depart="15.00" from="8/3to8/2" to="4/5to3/5" departLane="best" departSpeed="max" departPos="random_free"/>
    <trip id="16" depart="16.00" from="8/8to9/8" to="10/8to10/7" departLane="best" departSpeed="max" departPos="random_free"/>
    <trip id="17" depart="17.00" from="3/5to4/5" to="6/0to6/1" departLane="best" departSpeed="max" departPos="random_free"/>
    <trip id="18" depart="18.00" from="4/3to4/4" to="10/7to9/7" departLane="best" departSpeed="max" departPos="random_free"/>
    <trip id="19" depart="19.00" from="1/9to1/10" to="7/2to7/1" departLane="best" departSpeed="max" departPos="random_free"/>
    <trip id="20" depart="20.00" from="7/5to7/6" to="3/8to4/8" departLane="best" departSpeed="max" departPos="random_free"/>
    <trip id="21" depart="21.00" from="0/4to0/3" to="3/9to3/8" departLane="best" departSpeed="max" departPos="random_free"/>
    <trip id="22" depart="22.00" from="5/0to6/0" to="4/7to5/7" departLane="best" departSpeed="max" departPos="random_free"/>
    <trip id="23" depart="23.00" from="0/1to0/2" to="7/8to8/8" departLane="best" departSpeed="max" departPos="random_free"/>
    <trip id="24" depart="24.00" from="10/1to9/1" to="9/0to9/1" departLane="best" departSpeed="max" departPos="random_free"/>
    <trip id="25" depart="25.00" from="0/1to0/0" to="4/3to3/3" departLane="best" departSpeed="max" departPos="random_free"/>
    <trip id="26" depart="26.00" from="2/4to2/3" to="6/7to5/7" departLane="best" departSpeed="max" departPos="random_free"/>
    <trip id="27" depart="27.00" from="9/2to9/3" to="8/8to8/9" departLane="best" departSpeed="max" departPos="random_free"/>
</routes>
