<?xml version="1.0" encoding="UTF-8"?>
<!-- generated on 2018-05-04 18:22:09.096274 by $Id$
  options: -n mapgrid.net.xml -e 28 -l <doubleminus>trip-attributes=departLane="best" departSpeed="max" departPos="random_free" -o trips.trips.xml
-->
<routes xmlns:xsi="http://www.w3.org/2001/XMLSchema-instance" xsi:noNamespaceSchemaLocation="http://sumo.dlr.de/xsd/routes_file.xsd">
    <trip id="0" depart="0.00" from="1/5to2/5" to="7/5to8/5" departLane="best" departSpeed="max" departPos="random_free"/>
    <trip id="1" depart="1.00" from="2/6to3/6" to="2/1to1/1" departLane="best" departSpeed="max" departPos="random_free"/>
    <trip id="2" depart="2.00" from="3/1to4/1" to="4/9to4/10" departLane="best" departSpeed="max" departPos="random_free"/>
    <trip id="3" depart="3.00" from="8/7to8/6" to="7/4to7/3" departLane="best" departSpeed="max" departPos="random_free"/>
    <trip id="4" depart="4.00" from="6/1to7/1" to="9/7to9/6" departLane="best" departSpeed="max" departPos="random_free"/>
    <trip id="5" depart="5.00" from="5/3to5/2" to="6/10to5/10" departLane="best" departSpeed="max" departPos="random_free"/>
    <trip id="6" depart="6.00" from="7/1to7/0" to="10/2to9/2" departLane="best" departSpeed="max" departPos="random_free"/>
    <trip id="7" depart="7.00" from="2/7to1/7" to="8/0to9/0" departLane="best" departSpeed="max" departPos="random_free"/>
    <trip id="8" depart="8.00" from="6/8to6/9" to="2/3to2/4" departLane="best" departSpeed="max" departPos="random_free"/>
    <trip id="9" depart="9.00" from="4/9to5/9" to="7/2to7/1" departLane="best" departSpeed="max" departPos="random_free"/>
    <trip id="10" depart="10.00" from="2/3to1/3" to="8/7to7/7" departLane="best" departSpeed="max" departPos="random_free"/>
    <trip id="11" depart="11.00" from="0/9to1/9" to="4/7to3/7" departLane="best" departSpeed="max" departPos="random_free"/>
    <trip id="12" depart="12.00" from="6/6to6/5" to="3/10to3/9" departLane="best" departSpeed="max" departPos="random_free"/>
    <trip id="13" depart="13.00" from="2/7to2/8" to="3/3to3/4" departLane="best" departSpeed="max" departPos="random_free"/>
    <trip id="14" depart="14.00" from="9/7to10/7" to="2/9to3/9" departLane="best" departSpeed="max" departPos="random_free"/>
    <trip id="15" depart="15.00" from="7/6to7/7" to="1/7to1/6" departLane="best" departSpeed="max" departPos="random_free"/>
    <trip id="16" depart="16.00" from="8/0to7/0" to="3/6to4/6" departLane="best" departSpeed="max" departPos="random_free"/>
    <trip id="17" depart="17.00" from="1/3to1/2" to="2/2to2/1" departLane="best" departSpeed="max" departPos="random_free"/>
    <trip id="18" depart="18.00" from="8/9to7/9" to="9/10to8/10" departLane="best" departSpeed="max" departPos="random_free"/>
    <trip id="19" depart="19.00" from="1/5to0/5" to="3/0to2/0" departLane="best" departSpeed="max" departPos="random_free"/>
    <trip id="20" depart="20.00" from="9/5to9/6" to="1/9to0/9" departLane="best" departSpeed="max" departPos="random_free"/>
    <trip id="21" depart="21.00" from="3/7to4/7" to="7/10to7/9" departLane="best" departSpeed="max" departPos="random_free"/>
    <trip id="22" depart="22.00" from="10/9to9/9" to="10/6to9/6" departLane="best" departSpeed="max" departPos="random_free"/>
    <trip id="23" depart="23.00" from="0/0to0/1" to="3/5to3/4" departLane="best" departSpeed="max" departPos="random_free"/>
    <trip id="24" depart="24.00" from="7/4to7/3" to="5/0to5/1" departLane="best" departSpeed="max" departPos="random_free"/>
    <trip id="25" depart="25.00" from="10/6to9/6" to="8/5to8/4" departLane="best" departSpeed="max" departPos="random_free"/>
    <trip id="26" depart="26.00" from="2/2to2/3" to="7/1to7/0" departLane="best" departSpeed="max" departPos="random_free"/>
    <trip id="27" depart="27.00" from="9/9to9/10" to="6/2to6/3" departLane="best" departSpeed="max" departPos="random_free"/>
</routes>
