<?xml version="1.0" encoding="UTF-8"?>
<!-- generated on 2018-04-26 19:40:03.244886 by $Id$
  options: -n mapgrid.net.xml -e 28 -l <doubleminus>trip-attributes=departLane="best" departSpeed="max" departPos="random_free" -o trips.trips.xml
-->
<routes xmlns:xsi="http://www.w3.org/2001/XMLSchema-instance" xsi:noNamespaceSchemaLocation="http://sumo.dlr.de/xsd/routes_file.xsd">
    <trip id="0" depart="0.00" from="8/2to9/2" to="4/9to5/9" departLane="best" departSpeed="max" departPos="random_free"/>
    <trip id="1" depart="1.00" from="2/2to2/3" to="5/5to5/4" departLane="best" departSpeed="max" departPos="random_free"/>
    <trip id="2" depart="2.00" from="2/2to1/2" to="1/1to1/2" departLane="best" departSpeed="max" departPos="random_free"/>
    <trip id="3" depart="3.00" from="6/9to6/8" to="9/5to9/4" departLane="best" departSpeed="max" departPos="random_free"/>
    <trip id="4" depart="4.00" from="10/9to10/10" to="4/3to4/2" departLane="best" departSpeed="max" departPos="random_free"/>
    <trip id="5" depart="5.00" from="3/9to2/9" to="1/1to0/1" departLane="best" departSpeed="max" departPos="random_free"/>
    <trip id="6" depart="6.00" from="9/8to9/7" to="0/5to1/5" departLane="best" departSpeed="max" departPos="random_free"/>
    <trip id="7" depart="7.00" from="5/6to5/7" to="5/3to6/3" departLane="best" departSpeed="max" departPos="random_free"/>
    <trip id="8" depart="8.00" from="1/10to1/9" to="6/10to6/9" departLane="best" departSpeed="max" departPos="random_free"/>
    <trip id="9" depart="9.00" from="2/0to1/0" to="0/9to1/9" departLane="best" departSpeed="max" departPos="random_free"/>
    <trip id="10" depart="10.00" from="10/8to9/8" to="1/3to1/2" departLane="best" departSpeed="max" departPos="random_free"/>
    <trip id="11" depart="11.00" from="4/0to5/0" to="9/7to8/7" departLane="best" departSpeed="max" departPos="random_free"/>
    <trip id="12" depart="12.00" from="7/7to8/7" to="5/0to6/0" departLane="best" departSpeed="max" departPos="random_free"/>
    <trip id="13" depart="13.00" from="7/9to7/8" to="8/0to9/0" departLane="best" departSpeed="max" departPos="random_free"/>
    <trip id="14" depart="14.00" from="8/8to8/7" to="1/8to1/7" departLane="best" departSpeed="max" departPos="random_free"/>
    <trip id="15" depart="15.00" from="0/4to1/4" to="6/3to6/4" departLane="best" departSpeed="max" departPos="random_free"/>
    <trip id="16" depart="16.00" from="7/5to7/6" to="1/2to1/3" departLane="best" departSpeed="max" departPos="random_free"/>
    <trip id="17" depart="17.00" from="8/5to9/5" to="6/1to5/1" departLane="best" departSpeed="max" departPos="random_free"/>
    <trip id="18" depart="18.00" from="3/2to3/1" to="8/3to7/3" departLane="best" departSpeed="max" departPos="random_free"/>
    <trip id="19" depart="19.00" from="9/0to8/0" to="7/9to7/8" departLane="best" departSpeed="max" departPos="random_free"/>
    <trip id="20" depart="20.00" from="3/2to3/1" to="4/8to5/8" departLane="best" departSpeed="max" departPos="random_free"/>
    <trip id="21" depart="21.00" from="1/3to2/3" to="4/7to4/8" departLane="best" departSpeed="max" departPos="random_free"/>
    <trip id="22" depart="22.00" from="10/10to10/9" to="0/6to0/5" departLane="best" departSpeed="max" departPos="random_free"/>
    <trip id="23" depart="23.00" from="9/0to10/0" to="2/7to1/7" departLane="best" departSpeed="max" departPos="random_free"/>
    <trip id="24" depart="24.00" from="5/10to6/10" to="1/10to1/9" departLane="best" departSpeed="max" departPos="random_free"/>
    <trip id="25" depart="25.00" from="4/1to4/0" to="0/4to0/3" departLane="best" departSpeed="max" departPos="random_free"/>
    <trip id="26" depart="26.00" from="9/7to9/6" to="6/1to6/0" departLane="best" departSpeed="max" departPos="random_free"/>
    <trip id="27" depart="27.00" from="1/7to2/7" to="9/6to8/6" departLane="best" departSpeed="max" departPos="random_free"/>
</routes>
