<?xml version="1.0" encoding="UTF-8"?>
<!-- generated on 2018-04-28 18:28:51.160914 by $Id$
  options: -n mapgrid.net.xml -e 38 -l <doubleminus>trip-attributes=departLane="best" departSpeed="max" departPos="random_free" color="1,0,0" -o trips.trips.xml
-->
<routes xmlns:xsi="http://www.w3.org/2001/XMLSchema-instance" xsi:noNamespaceSchemaLocation="http://sumo.dlr.de/xsd/routes_file.xsd">
    <trip id="0" depart="0.00" from="4/7to4/6" to="8/2to9/2" departLane="best" departSpeed="max" departPos="random_free" color="1,0,0"/>
    <trip id="1" depart="1.00" from="3/7to3/8" to="3/9to4/9" departLane="best" departSpeed="max" departPos="random_free" color="1,0,0"/>
    <trip id="2" depart="2.00" from="5/7to5/6" to="8/6to7/6" departLane="best" departSpeed="max" departPos="random_free" color="1,0,0"/>
    <trip id="3" depart="3.00" from="5/5to4/5" to="1/2to2/2" departLane="best" departSpeed="max" departPos="random_free" color="1,0,0"/>
    <trip id="4" depart="4.00" from="4/2to4/3" to="0/9to0/10" departLane="best" departSpeed="max" departPos="random_free" color="1,0,0"/>
    <trip id="5" depart="5.00" from="4/9to3/9" to="7/9to8/9" departLane="best" departSpeed="max" departPos="random_free" color="1,0,0"/>
    <trip id="6" depart="6.00" from="4/10to3/10" to="1/2to0/2" departLane="best" departSpeed="max" departPos="random_free" color="1,0,0"/>
    <trip id="7" depart="7.00" from="5/3to5/4" to="0/2to0/1" departLane="best" departSpeed="max" departPos="random_free" color="1,0,0"/>
    <trip id="8" depart="8.00" from="1/10to1/9" to="1/3to1/4" departLane="best" departSpeed="max" departPos="random_free" color="1,0,0"/>
    <trip id="9" depart="9.00" from="9/5to9/6" to="9/8to9/7" departLane="best" departSpeed="max" departPos="random_free" color="1,0,0"/>
    <trip id="10" depart="10.00" from="0/10to0/9" to="7/9to8/9" departLane="best" departSpeed="max" departPos="random_free" color="1,0,0"/>
    <trip id="11" depart="11.00" from="2/2to3/2" to="3/7to3/6" departLane="best" departSpeed="max" departPos="random_free" color="1,0,0"/>
    <trip id="12" depart="12.00" from="10/5to10/6" to="1/9to2/9" departLane="best" departSpeed="max" departPos="random_free" color="1,0,0"/>
    <trip id="13" depart="13.00" from="8/9to8/8" to="2/5to2/4" departLane="best" departSpeed="max" departPos="random_free" color="1,0,0"/>
    <trip id="14" depart="14.00" from="9/6to8/6" to="4/10to3/10" departLane="best" departSpeed="max" departPos="random_free" color="1,0,0"/>
    <trip id="15" depart="15.00" from="3/7to4/7" to="6/2to5/2" departLane="best" departSpeed="max" departPos="random_free" color="1,0,0"/>
    <trip id="16" depart="16.00" from="4/3to3/3" to="9/1to10/1" departLane="best" departSpeed="max" departPos="random_free" color="1,0,0"/>
    <trip id="17" depart="17.00" from="6/5to7/5" to="3/3to3/2" departLane="best" departSpeed="max" departPos="random_free" color="1,0,0"/>
    <trip id="18" depart="18.00" from="4/8to4/7" to="5/5to6/5" departLane="best" departSpeed="max" departPos="random_free" color="1,0,0"/>
    <trip id="19" depart="19.00" from="10/8to10/9" to="10/1to10/0" departLane="best" departSpeed="max" departPos="random_free" color="1,0,0"/>
    <trip id="20" depart="20.00" from="3/10to3/9" to="3/9to4/9" departLane="best" departSpeed="max" departPos="random_free" color="1,0,0"/>
    <trip id="21" depart="21.00" from="0/5to0/6" to="5/5to6/5" departLane="best" departSpeed="max" departPos="random_free" color="1,0,0"/>
    <trip id="22" depart="22.00" from="6/5to7/5" to="7/5to7/6" departLane="best" departSpeed="max" departPos="random_free" color="1,0,0"/>
    <trip id="23" depart="23.00" from="2/5to3/5" to="6/7to6/6" departLane="best" departSpeed="max" departPos="random_free" color="1,0,0"/>
    <trip id="24" depart="24.00" from="6/2to6/1" to="2/1to3/1" departLane="best" departSpeed="max" departPos="random_free" color="1,0,0"/>
    <trip id="25" depart="25.00" from="1/9to2/9" to="3/10to2/10" departLane="best" departSpeed="max" departPos="random_free" color="1,0,0"/>
    <trip id="26" depart="26.00" from="4/0to5/0" to="2/4to2/3" departLane="best" departSpeed="max" departPos="random_free" color="1,0,0"/>
    <trip id="27" depart="27.00" from="6/8to7/8" to="2/2to1/2" departLane="best" departSpeed="max" departPos="random_free" color="1,0,0"/>
    <trip id="28" depart="28.00" from="4/4to4/3" to="3/1to4/1" departLane="best" departSpeed="max" departPos="random_free" color="1,0,0"/>
    <trip id="29" depart="29.00" from="5/8to6/8" to="1/2to1/1" departLane="best" departSpeed="max" departPos="random_free" color="1,0,0"/>
    <trip id="30" depart="30.00" from="8/2to9/2" to="9/8to9/7" departLane="best" departSpeed="max" departPos="random_free" color="1,0,0"/>
    <trip id="31" depart="31.00" from="5/1to4/1" to="2/0to3/0" departLane="best" departSpeed="max" departPos="random_free" color="1,0,0"/>
    <trip id="32" depart="32.00" from="4/5to4/6" to="1/10to2/10" departLane="best" departSpeed="max" departPos="random_free" color="1,0,0"/>
    <trip id="33" depart="33.00" from="1/6to1/7" to="1/0to0/0" departLane="best" departSpeed="max" departPos="random_free" color="1,0,0"/>
    <trip id="34" depart="34.00" from="2/6to2/7" to="1/8to0/8" departLane="best" departSpeed="max" departPos="random_free" color="1,0,0"/>
    <trip id="35" depart="35.00" from="1/3to1/2" to="0/4to0/5" departLane="best" departSpeed="max" departPos="random_free" color="1,0,0"/>
    <trip id="36" depart="36.00" from="6/4to6/5" to="10/10to10/9" departLane="best" departSpeed="max" departPos="random_free" color="1,0,0"/>
    <trip id="37" depart="37.00" from="6/6to5/6" to="2/9to2/10" departLane="best" departSpeed="max" departPos="random_free" color="1,0,0"/>
</routes>
