<?xml version="1.0" encoding="UTF-8"?>
<!-- generated on 2018-04-30 19:17:09.332912 by $Id$
  options: -n mapgrid.net.xml -e 38 -l <doubleminus>trip-attributes=departLane="best" departSpeed="max" departPos="random_free" color="1,0,0" -o trips.trips.xml
-->
<routes xmlns:xsi="http://www.w3.org/2001/XMLSchema-instance" xsi:noNamespaceSchemaLocation="http://sumo.dlr.de/xsd/routes_file.xsd">
    <trip id="0" depart="0.00" from="7/3to6/3" to="3/8to3/7" departLane="best" departSpeed="max" departPos="random_free" color="1,0,0"/>
    <trip id="1" depart="1.00" from="0/10to1/10" to="1/5to1/4" departLane="best" departSpeed="max" departPos="random_free" color="1,0,0"/>
    <trip id="2" depart="2.00" from="2/4to1/4" to="6/6to7/6" departLane="best" departSpeed="max" departPos="random_free" color="1,0,0"/>
    <trip id="3" depart="3.00" from="7/7to7/6" to="8/9to8/8" departLane="best" departSpeed="max" departPos="random_free" color="1,0,0"/>
    <trip id="4" depart="4.00" from="1/5to2/5" to="5/4to6/4" departLane="best" departSpeed="max" departPos="random_free" color="1,0,0"/>
    <trip id="5" depart="5.00" from="8/9to8/10" to="7/3to8/3" departLane="best" departSpeed="max" departPos="random_free" color="1,0,0"/>
    <trip id="6" depart="6.00" from="8/3to7/3" to="9/7to8/7" departLane="best" departSpeed="max" departPos="random_free" color="1,0,0"/>
    <trip id="7" depart="7.00" from="10/7to10/8" to="2/9to1/9" departLane="best" departSpeed="max" departPos="random_free" color="1,0,0"/>
    <trip id="8" depart="8.00" from="8/9to8/8" to="10/4to10/3" departLane="best" departSpeed="max" departPos="random_free" color="1,0,0"/>
    <trip id="9" depart="9.00" from="6/6to7/6" to="10/4to10/3" departLane="best" departSpeed="max" departPos="random_free" color="1,0,0"/>
    <trip id="10" depart="10.00" from="8/8to8/7" to="3/10to4/10" departLane="best" departSpeed="max" departPos="random_free" color="1,0,0"/>
    <trip id="11" depart="11.00" from="1/3to1/2" to="0/10to1/10" departLane="best" departSpeed="max" departPos="random_free" color="1,0,0"/>
    <trip id="12" depart="12.00" from="9/10to10/10" to="4/10to3/10" departLane="best" departSpeed="max" departPos="random_free" color="1,0,0"/>
    <trip id="13" depart="13.00" from="8/6to7/6" to="3/2to2/2" departLane="best" departSpeed="max" departPos="random_free" color="1,0,0"/>
    <trip id="14" depart="14.00" from="2/2to2/3" to="5/3to6/3" departLane="best" departSpeed="max" departPos="random_free" color="1,0,0"/>
    <trip id="15" depart="15.00" from="1/4to1/3" to="6/6to6/7" departLane="best" departSpeed="max" departPos="random_free" color="1,0,0"/>
    <trip id="16" depart="16.00" from="8/5to7/5" to="8/9to8/10" departLane="best" departSpeed="max" departPos="random_free" color="1,0,0"/>
    <trip id="17" depart="17.00" from="5/3to5/2" to="10/6to10/7" departLane="best" departSpeed="max" departPos="random_free" color="1,0,0"/>
    <trip id="18" depart="18.00" from="0/2to0/3" to="6/8to7/8" departLane="best" departSpeed="max" departPos="random_free" color="1,0,0"/>
    <trip id="19" depart="19.00" from="4/8to3/8" to="5/10to4/10" departLane="best" departSpeed="max" departPos="random_free" color="1,0,0"/>
    <trip id="20" depart="20.00" from="1/6to1/7" to="5/0to4/0" departLane="best" departSpeed="max" departPos="random_free" color="1,0,0"/>
    <trip id="21" depart="21.00" from="3/0to3/1" to="0/9to0/8" departLane="best" departSpeed="max" departPos="random_free" color="1,0,0"/>
    <trip id="22" depart="22.00" from="5/6to5/5" to="5/10to4/10" departLane="best" departSpeed="max" departPos="random_free" color="1,0,0"/>
    <trip id="23" depart="23.00" from="5/6to6/6" to="7/3to7/4" departLane="best" departSpeed="max" departPos="random_free" color="1,0,0"/>
    <trip id="24" depart="24.00" from="2/3to1/3" to="2/3to1/3" departLane="best" departSpeed="max" departPos="random_free" color="1,0,0"/>
    <trip id="25" depart="25.00" from="1/8to2/8" to="1/4to2/4" departLane="best" departSpeed="max" departPos="random_free" color="1,0,0"/>
    <trip id="26" depart="26.00" from="2/5to2/4" to="1/1to1/0" departLane="best" departSpeed="max" departPos="random_free" color="1,0,0"/>
    <trip id="27" depart="27.00" from="2/2to3/2" to="1/6to2/6" departLane="best" departSpeed="max" departPos="random_free" color="1,0,0"/>
    <trip id="28" depart="28.00" from="4/8to4/7" to="7/9to7/8" departLane="best" departSpeed="max" departPos="random_free" color="1,0,0"/>
    <trip id="29" depart="29.00" from="4/8to5/8" to="2/9to1/9" departLane="best" departSpeed="max" departPos="random_free" color="1,0,0"/>
    <trip id="30" depart="30.00" from="6/0to6/1" to="7/8to7/7" departLane="best" departSpeed="max" departPos="random_free" color="1,0,0"/>
    <trip id="31" depart="31.00" from="10/6to10/7" to="9/4to8/4" departLane="best" departSpeed="max" departPos="random_free" color="1,0,0"/>
    <trip id="32" depart="32.00" from="8/2to8/3" to="0/7to1/7" departLane="best" departSpeed="max" departPos="random_free" color="1,0,0"/>
    <trip id="33" depart="33.00" from="1/6to2/6" to="0/2to0/1" departLane="best" departSpeed="max" departPos="random_free" color="1,0,0"/>
    <trip id="34" depart="34.00" from="8/5to8/6" to="3/0to2/0" departLane="best" departSpeed="max" departPos="random_free" color="1,0,0"/>
    <trip id="35" depart="35.00" from="3/1to2/1" to="4/5to3/5" departLane="best" departSpeed="max" departPos="random_free" color="1,0,0"/>
    <trip id="36" depart="36.00" from="4/4to4/3" to="2/8to1/8" departLane="best" departSpeed="max" departPos="random_free" color="1,0,0"/>
    <trip id="37" depart="37.00" from="1/8to2/8" to="8/2to8/1" departLane="best" departSpeed="max" departPos="random_free" color="1,0,0"/>
</routes>
