<?xml version="1.0" encoding="UTF-8"?>
<!-- generated on 2018-05-02 15:38:41.150528 by $Id$
  options: -n mapgrid.net.xml -e 48 -l <doubleminus>trip-attributes=departLane="best" departSpeed="max" departPos="random_free" -o trips.trips.xml
-->
<routes xmlns:xsi="http://www.w3.org/2001/XMLSchema-instance" xsi:noNamespaceSchemaLocation="http://sumo.dlr.de/xsd/routes_file.xsd">
    <trip id="0" depart="0.00" from="-156261502#2" to="156261228" departLane="best" departSpeed="max" departPos="random_free"/>
    <trip id="1" depart="1.00" from="-28410233#0" to="303948346#0" departLane="best" departSpeed="max" departPos="random_free"/>
    <trip id="2" depart="2.00" from="353154176#1" to="-353154181" departLane="best" departSpeed="max" departPos="random_free"/>
    <trip id="3" depart="3.00" from="156261554" to="285027168#1" departLane="best" departSpeed="max" departPos="random_free"/>
    <trip id="4" depart="4.00" from="-353154171#0" to="-422082701#1" departLane="best" departSpeed="max" departPos="random_free"/>
    <trip id="5" depart="5.00" from="369538887#2" to="222799177" departLane="best" departSpeed="max" departPos="random_free"/>
    <trip id="6" depart="6.00" from="367619856" to="455032297" departLane="best" departSpeed="max" departPos="random_free"/>
    <trip id="7" depart="7.00" from="284980115#4" to="-422082715#1" departLane="best" departSpeed="max" departPos="random_free"/>
    <trip id="8" depart="8.00" from="-156261445" to="156261228" departLane="best" departSpeed="max" departPos="random_free"/>
    <trip id="9" depart="9.00" from="28410277#4" to="222799177" departLane="best" departSpeed="max" departPos="random_free"/>
    <trip id="10" depart="10.00" from="-367619842" to="28716610" departLane="best" departSpeed="max" departPos="random_free"/>
    <trip id="11" depart="11.00" from="-156261488" to="-422082693" departLane="best" departSpeed="max" departPos="random_free"/>
    <trip id="12" depart="12.00" from="28410277#4" to="-156261190" departLane="best" departSpeed="max" departPos="random_free"/>
    <trip id="13" depart="13.00" from="449480717#1" to="450298097" departLane="best" departSpeed="max" departPos="random_free"/>
    <trip id="14" depart="14.00" from="156261351#0" to="284980115#0" departLane="best" departSpeed="max" departPos="random_free"/>
    <trip id="15" depart="15.00" from="367613991" to="-156261312#0" departLane="best" departSpeed="max" departPos="random_free"/>
    <trip id="16" depart="16.00" from="36048880#0" to="156261488" departLane="best" departSpeed="max" departPos="random_free"/>
    <trip id="17" depart="17.00" from="156261190" to="369538883#3" departLane="best" departSpeed="max" departPos="random_free"/>
    <trip id="18" depart="18.00" from="-156261312#0" to="361247463#1" departLane="best" departSpeed="max" departPos="random_free"/>
    <trip id="19" depart="19.00" from="284980115#2" to="28410277#0" departLane="best" departSpeed="max" departPos="random_free"/>
    <trip id="20" depart="20.00" from="-156261251" to="303948405#1" departLane="best" departSpeed="max" departPos="random_free"/>
    <trip id="21" depart="21.00" from="-361247463#1" to="-317197954#4" departLane="best" departSpeed="max" departPos="random_free"/>
    <trip id="22" depart="22.00" from="-422082728#3" to="422082701#1" departLane="best" departSpeed="max" departPos="random_free"/>
    <trip id="23" depart="23.00" from="-303948410" to="-317197954#2" departLane="best" departSpeed="max" departPos="random_free"/>
    <trip id="24" depart="24.00" from="28716610" to="353154181" departLane="best" departSpeed="max" departPos="random_free"/>
    <trip id="25" depart="25.00" from="-156261523" to="450298093" departLane="best" departSpeed="max" departPos="random_free"/>
    <trip id="26" depart="26.00" from="449480717#1" to="156261312#0" departLane="best" departSpeed="max" departPos="random_free"/>
    <trip id="27" depart="27.00" from="-422082677" to="156261488" departLane="best" departSpeed="max" departPos="random_free"/>
    <trip id="28" depart="28.00" from="303948410" to="-367619833#0" departLane="best" departSpeed="max" departPos="random_free"/>
    <trip id="29" depart="29.00" from="-422082701#2" to="28356498#0" departLane="best" departSpeed="max" departPos="random_free"/>
    <trip id="30" depart="30.00" from="307395967#0" to="367938203" departLane="best" departSpeed="max" departPos="random_free"/>
    <trip id="31" depart="31.00" from="156261488" to="-450298097" departLane="best" departSpeed="max" departPos="random_free"/>
    <trip id="32" depart="32.00" from="-156261251" to="450525271" departLane="best" departSpeed="max" departPos="random_free"/>
    <trip id="33" depart="33.00" from="-303948413" to="156261169" departLane="best" departSpeed="max" departPos="random_free"/>
    <trip id="34" depart="34.00" from="303948349#1" to="303948407" departLane="best" departSpeed="max" departPos="random_free"/>
    <trip id="35" depart="35.00" from="156261502#6" to="376918047" departLane="best" departSpeed="max" departPos="random_free"/>
    <trip id="36" depart="36.00" from="367619835#0" to="-156261502#4" departLane="best" departSpeed="max" departPos="random_free"/>
    <trip id="37" depart="37.00" from="-422082715#1" to="156261168" departLane="best" departSpeed="max" departPos="random_free"/>
    <trip id="38" depart="38.00" from="369538882#0" to="303948430" departLane="best" departSpeed="max" departPos="random_free"/>
    <trip id="39" depart="39.00" from="-367938218" to="353154174#1" departLane="best" departSpeed="max" departPos="random_free"/>
    <trip id="40" depart="40.00" from="449480717#1" to="-353154174#1" departLane="best" departSpeed="max" departPos="random_free"/>
    <trip id="41" depart="41.00" from="-361247463#0" to="303948405#0" departLane="best" departSpeed="max" departPos="random_free"/>
    <trip id="42" depart="42.00" from="-156261299#1" to="303948395#1" departLane="best" departSpeed="max" departPos="random_free"/>
    <trip id="43" depart="43.00" from="28410277#1" to="156261190" departLane="best" departSpeed="max" departPos="random_free"/>
    <trip id="44" depart="44.00" from="156261230" to="422082728#2" departLane="best" departSpeed="max" departPos="random_free"/>
    <trip id="45" depart="45.00" from="222799332#1" to="156261367" departLane="best" departSpeed="max" departPos="random_free"/>
    <trip id="46" depart="46.00" from="-422082693" to="156261243" departLane="best" departSpeed="max" departPos="random_free"/>
    <trip id="47" depart="47.00" from="422082715#0" to="286011720#0" departLane="best" departSpeed="max" departPos="random_free"/>
</routes>
