<?xml version="1.0" encoding="UTF-8"?>
<!-- generated on 2018-04-06 23:26:15.050315 by $Id$
  options: -n mapgrid.net.xml -e 28 -l <doubleminus>trip-attributes=departLane="best" departSpeed="max" departPos="random_free" -o trips.trips.xml
-->
<routes xmlns:xsi="http://www.w3.org/2001/XMLSchema-instance" xsi:noNamespaceSchemaLocation="http://sumo.dlr.de/xsd/routes_file.xsd">
    <trip id="0" depart="0.00" from="5/3to6/3" to="3/8to2/8" departLane="best" departSpeed="max" departPos="random_free"/>
    <trip id="1" depart="1.00" from="3/7to3/8" to="6/8to7/8" departLane="best" departSpeed="max" departPos="random_free"/>
    <trip id="2" depart="2.00" from="4/6to5/6" to="6/1to6/0" departLane="best" departSpeed="max" departPos="random_free"/>
    <trip id="3" depart="3.00" from="6/10to5/10" to="6/3to5/3" departLane="best" departSpeed="max" departPos="random_free"/>
    <trip id="4" depart="4.00" from="7/2to7/3" to="9/6to8/6" departLane="best" departSpeed="max" departPos="random_free"/>
    <trip id="5" depart="5.00" from="5/5to4/5" to="5/9to5/10" departLane="best" departSpeed="max" departPos="random_free"/>
    <trip id="6" depart="6.00" from="5/10to6/10" to="2/6to3/6" departLane="best" departSpeed="max" departPos="random_free"/>
    <trip id="7" depart="7.00" from="6/7to5/7" to="3/3to4/3" departLane="best" departSpeed="max" departPos="random_free"/>
    <trip id="8" depart="8.00" from="5/8to5/7" to="9/0to10/0" departLane="best" departSpeed="max" departPos="random_free"/>
    <trip id="9" depart="9.00" from="5/10to5/9" to="1/7to1/8" departLane="best" departSpeed="max" departPos="random_free"/>
    <trip id="10" depart="10.00" from="5/3to5/4" to="10/7to10/8" departLane="best" departSpeed="max" departPos="random_free"/>
    <trip id="11" depart="11.00" from="3/0to3/1" to="0/8to0/9" departLane="best" departSpeed="max" departPos="random_free"/>
    <trip id="12" depart="12.00" from="1/0to0/0" to="2/0to2/1" departLane="best" departSpeed="max" departPos="random_free"/>
    <trip id="13" depart="13.00" from="3/10to4/10" to="0/9to0/8" departLane="best" departSpeed="max" departPos="random_free"/>
    <trip id="14" depart="14.00" from="1/0to1/1" to="6/8to7/8" departLane="best" departSpeed="max" departPos="random_free"/>
    <trip id="15" depart="15.00" from="1/8to2/8" to="4/5to4/6" departLane="best" departSpeed="max" departPos="random_free"/>
    <trip id="16" depart="16.00" from="6/3to5/3" to="1/4to1/5" departLane="best" departSpeed="max" departPos="random_free"/>
    <trip id="17" depart="17.00" from="2/1to2/0" to="10/9to10/8" departLane="best" departSpeed="max" departPos="random_free"/>
    <trip id="18" depart="18.00" from="4/10to3/10" to="7/1to8/1" departLane="best" departSpeed="max" departPos="random_free"/>
    <trip id="19" depart="19.00" from="10/8to10/7" to="3/4to4/4" departLane="best" departSpeed="max" departPos="random_free"/>
    <trip id="20" depart="20.00" from="8/2to9/2" to="7/0to7/1" departLane="best" departSpeed="max" departPos="random_free"/>
    <trip id="21" depart="21.00" from="1/10to0/10" to="8/3to7/3" departLane="best" departSpeed="max" departPos="random_free"/>
    <trip id="22" depart="22.00" from="7/6to7/7" to="5/2to5/3" departLane="best" departSpeed="max" departPos="random_free"/>
    <trip id="23" depart="23.00" from="9/9to9/10" to="6/2to6/1" departLane="best" departSpeed="max" departPos="random_free"/>
    <trip id="24" depart="24.00" from="1/5to2/5" to="9/6to8/6" departLane="best" departSpeed="max" departPos="random_free"/>
    <trip id="25" depart="25.00" from="8/3to8/2" to="9/9to9/10" departLane="best" departSpeed="max" departPos="random_free"/>
    <trip id="26" depart="26.00" from="8/8to7/8" to="4/9to5/9" departLane="best" departSpeed="max" departPos="random_free"/>
    <trip id="27" depart="27.00" from="3/8to2/8" to="7/2to8/2" departLane="best" departSpeed="max" departPos="random_free"/>
</routes>
