<?xml version="1.0" encoding="UTF-8"?>
<!-- generated on 2018-05-03 22:46:07.867256 by $Id$
  options: -n mapgrid.net.xml -e 28 -l <doubleminus>trip-attributes=departLane="best" departSpeed="max" departPos="random_free" -o trips.trips.xml
-->
<routes xmlns:xsi="http://www.w3.org/2001/XMLSchema-instance" xsi:noNamespaceSchemaLocation="http://sumo.dlr.de/xsd/routes_file.xsd">
    <trip id="0" depart="0.00" from="7/10to6/10" to="1/4to0/4" departLane="best" departSpeed="max" departPos="random_free"/>
    <trip id="1" depart="1.00" from="9/9to8/9" to="6/5to5/5" departLane="best" departSpeed="max" departPos="random_free"/>
    <trip id="2" depart="2.00" from="1/3to1/4" to="8/8to8/7" departLane="best" departSpeed="max" departPos="random_free"/>
    <trip id="3" depart="3.00" from="1/6to1/5" to="4/6to4/7" departLane="best" departSpeed="max" departPos="random_free"/>
    <trip id="4" depart="4.00" from="10/6to10/5" to="6/10to5/10" departLane="best" departSpeed="max" departPos="random_free"/>
    <trip id="5" depart="5.00" from="8/6to7/6" to="7/3to7/4" departLane="best" departSpeed="max" departPos="random_free"/>
    <trip id="6" depart="6.00" from="6/1to6/2" to="7/10to6/10" departLane="best" departSpeed="max" departPos="random_free"/>
    <trip id="7" depart="7.00" from="10/2to10/3" to="6/0to5/0" departLane="best" departSpeed="max" departPos="random_free"/>
    <trip id="8" depart="8.00" from="8/8to7/8" to="5/10to4/10" departLane="best" departSpeed="max" departPos="random_free"/>
    <trip id="9" depart="9.00" from="5/5to4/5" to="5/7to6/7" departLane="best" departSpeed="max" departPos="random_free"/>
    <trip id="10" depart="10.00" from="6/10to7/10" to="3/4to2/4" departLane="best" departSpeed="max" departPos="random_free"/>
    <trip id="11" depart="11.00" from="0/1to0/0" to="2/6to3/6" departLane="best" departSpeed="max" departPos="random_free"/>
    <trip id="12" depart="12.00" from="4/0to5/0" to="4/2to3/2" departLane="best" departSpeed="max" departPos="random_free"/>
    <trip id="13" depart="13.00" from="1/4to1/3" to="4/8to4/9" departLane="best" departSpeed="max" departPos="random_free"/>
    <trip id="14" depart="14.00" from="1/10to2/10" to="9/5to10/5" departLane="best" departSpeed="max" departPos="random_free"/>
    <trip id="15" depart="15.00" from="10/5to9/5" to="8/1to8/0" departLane="best" departSpeed="max" departPos="random_free"/>
    <trip id="16" depart="16.00" from="9/9to10/9" to="0/2to1/2" departLane="best" departSpeed="max" departPos="random_free"/>
    <trip id="17" depart="17.00" from="7/6to7/7" to="2/1to2/0" departLane="best" departSpeed="max" departPos="random_free"/>
    <trip id="18" depart="18.00" from="8/7to7/7" to="7/8to8/8" departLane="best" departSpeed="max" departPos="random_free"/>
    <trip id="19" depart="19.00" from="5/8to4/8" to="5/9to6/9" departLane="best" departSpeed="max" departPos="random_free"/>
    <trip id="20" depart="20.00" from="8/0to8/1" to="7/1to7/0" departLane="best" departSpeed="max" departPos="random_free"/>
    <trip id="21" depart="21.00" from="6/3to6/2" to="3/7to3/6" departLane="best" departSpeed="max" departPos="random_free"/>
    <trip id="22" depart="22.00" from="5/4to5/5" to="9/4to10/4" departLane="best" departSpeed="max" departPos="random_free"/>
    <trip id="23" depart="23.00" from="3/7to3/8" to="4/7to4/8" departLane="best" departSpeed="max" departPos="random_free"/>
    <trip id="24" depart="24.00" from="1/5to2/5" to="8/5to9/5" departLane="best" departSpeed="max" departPos="random_free"/>
    <trip id="25" depart="25.00" from="8/0to9/0" to="1/5to2/5" departLane="best" departSpeed="max" departPos="random_free"/>
    <trip id="26" depart="26.00" from="6/7to6/6" to="2/2to2/1" departLane="best" departSpeed="max" departPos="random_free"/>
    <trip id="27" depart="27.00" from="6/8to5/8" to="4/2to3/2" departLane="best" departSpeed="max" departPos="random_free"/>
</routes>
