<?xml version="1.0" encoding="UTF-8"?>
<!-- generated on 2018-05-04 18:53:01.002962 by $Id$
  options: -n mapgrid.net.xml -e 28 -l <doubleminus>trip-attributes=departLane="best" departSpeed="max" departPos="random_free" -o trips.trips.xml
-->
<routes xmlns:xsi="http://www.w3.org/2001/XMLSchema-instance" xsi:noNamespaceSchemaLocation="http://sumo.dlr.de/xsd/routes_file.xsd">
    <trip id="0" depart="0.00" from="4/2to3/2" to="9/8to10/8" departLane="best" departSpeed="max" departPos="random_free"/>
    <trip id="1" depart="1.00" from="9/5to9/6" to="9/6to9/7" departLane="best" departSpeed="max" departPos="random_free"/>
    <trip id="2" depart="2.00" from="8/10to8/9" to="9/2to8/2" departLane="best" departSpeed="max" departPos="random_free"/>
    <trip id="3" depart="3.00" from="3/8to3/7" to="7/0to6/0" departLane="best" departSpeed="max" departPos="random_free"/>
    <trip id="4" depart="4.00" from="10/0to9/0" to="1/5to2/5" departLane="best" departSpeed="max" departPos="random_free"/>
    <trip id="5" depart="5.00" from="1/0to2/0" to="6/6to6/7" departLane="best" departSpeed="max" departPos="random_free"/>
    <trip id="6" depart="6.00" from="7/10to6/10" to="5/8to5/9" departLane="best" departSpeed="max" departPos="random_free"/>
    <trip id="7" depart="7.00" from="2/3to2/4" to="2/2to2/3" departLane="best" departSpeed="max" departPos="random_free"/>
    <trip id="8" depart="8.00" from="2/8to3/8" to="3/8to3/9" departLane="best" departSpeed="max" departPos="random_free"/>
    <trip id="9" depart="9.00" from="6/8to6/7" to="6/6to5/6" departLane="best" departSpeed="max" departPos="random_free"/>
    <trip id="10" depart="10.00" from="1/3to1/4" to="3/5to4/5" departLane="best" departSpeed="max" departPos="random_free"/>
    <trip id="11" depart="11.00" from="9/8to9/7" to="8/10to8/9" departLane="best" departSpeed="max" departPos="random_free"/>
    <trip id="12" depart="12.00" from="0/7to1/7" to="2/6to2/5" departLane="best" departSpeed="max" departPos="random_free"/>
    <trip id="13" depart="13.00" from="9/8to10/8" to="7/4to7/3" departLane="best" departSpeed="max" departPos="random_free"/>
    <trip id="14" depart="14.00" from="2/8to2/9" to="6/4to6/5" departLane="best" departSpeed="max" departPos="random_free"/>
    <trip id="15" depart="15.00" from="7/1to7/0" to="8/1to7/1" departLane="best" departSpeed="max" departPos="random_free"/>
    <trip id="16" depart="16.00" from="10/2to10/1" to="2/5to2/6" departLane="best" departSpeed="max" departPos="random_free"/>
    <trip id="17" depart="17.00" from="5/9to6/9" to="0/1to0/0" departLane="best" departSpeed="max" departPos="random_free"/>
    <trip id="18" depart="18.00" from="5/1to6/1" to="5/10to4/10" departLane="best" departSpeed="max" departPos="random_free"/>
    <trip id="19" depart="19.00" from="2/8to2/9" to="9/2to9/1" departLane="best" departSpeed="max" departPos="random_free"/>
    <trip id="20" depart="20.00" from="1/5to2/5" to="8/2to8/1" departLane="best" departSpeed="max" departPos="random_free"/>
    <trip id="21" depart="21.00" from="7/5to7/4" to="1/8to2/8" departLane="best" departSpeed="max" departPos="random_free"/>
    <trip id="22" depart="22.00" from="2/1to2/2" to="9/1to9/2" departLane="best" departSpeed="max" departPos="random_free"/>
    <trip id="23" depart="23.00" from="2/5to2/4" to="6/10to5/10" departLane="best" departSpeed="max" departPos="random_free"/>
    <trip id="24" depart="24.00" from="9/1to8/1" to="10/6to10/5" departLane="best" departSpeed="max" departPos="random_free"/>
    <trip id="25" depart="25.00" from="4/5to5/5" to="1/0to2/0" departLane="best" departSpeed="max" departPos="random_free"/>
    <trip id="26" depart="26.00" from="5/8to5/9" to="10/1to9/1" departLane="best" departSpeed="max" departPos="random_free"/>
    <trip id="27" depart="27.00" from="4/8to4/7" to="1/1to0/1" departLane="best" departSpeed="max" departPos="random_free"/>
</routes>
