<?xml version="1.0" encoding="UTF-8"?>

<!-- generated on Thu May  3 14:22:45 2018 by SUMO duarouter Version 0.32.0
<?xml version="1.0" encoding="UTF-8"?>

<configuration xmlns:xsi="http://www.w3.org/2001/XMLSchema-instance" xsi:noNamespaceSchemaLocation="http://sumo.dlr.de/xsd/duarouterConfiguration.xsd">

    <input>
        <net-file value="mapgrid.net.xml"/>
        <route-files value="trips.trips.xml"/>
    </input>

    <output>
        <output-file value="route.rou.xml"/>
        <alternatives-output value="route.rou.alt.xml"/>
    </output>

    <processing>
        <ignore-errors value="true"/>
        <repair value="true"/>
    </processing>

</configuration>
-->

<routes xmlns:xsi="http://www.w3.org/2001/XMLSchema-instance" xsi:noNamespaceSchemaLocation="http://sumo.dlr.de/xsd/routes_file.xsd">
    <vehicle id="1" depart="1.00" departLane="best" departPos="random_free" departSpeed="max">
        <route edges="286011720#3 286011720#4 286011720#5 303948410 367619831 303948349#3 -156261351#1 -156261367"/>
    </vehicle>
    <vehicle id="2" depart="2.00" departLane="best" departPos="random_free" departSpeed="max">
        <route edges="361247463#0 156261351#0 156261351#1 303948361#0 303948361#1 156261342#1 156261342#2 303948405#0 303948405#1 284980115#2 367613996 448270567#4 448270567#5 448270567#6"/>
    </vehicle>
    <vehicle id="3" depart="3.00" departLane="best" departPos="random_free" departSpeed="max">
        <route edges="-28410277#7 28410277#7 422082717#0 422082717#1 369538882#1 326480126 369538887#2 156261299#0 156261299#1 326480147 449480719 449480718 -353154171#3 -353154171#2 -353154171#1 -353154171#0 156261225"/>
    </vehicle>
    <vehicle id="4" depart="4.00" departLane="best" departPos="random_free" departSpeed="max">
        <route edges="369538882#0 -422082717#1 -422082717#0 -28410277#7 -28410277#6 -28410277#5 -28410277#4 -28410277#3 -28410277#2 -28410277#1 28410277#1"/>
    </vehicle>
    <vehicle id="5" depart="5.00" departLane="best" departPos="random_free" departSpeed="max">
        <route edges="285027169 285027170#0 36054622#0 36054622#1 450298087 450298089 285027167 450298088#0 450298088#1 450298084 327728882#0 327728882#1 327728882#2 327728882#3 327728882#4 327728882#5 327728882#6 327728882#7 204363485 222800434#0 222800434#1"/>
    </vehicle>
    <vehicle id="6" depart="6.00" departLane="best" departPos="random_free" departSpeed="max">
        <route edges="156261351#0 156261351#1 303948361#0 303948361#1 156261342#1 156261342#2 303948405#0 156261312#0 -367938203 -367938206 327728882#5 -156261225 353154171#0 156261263"/>
    </vehicle>
    <vehicle id="7" depart="7.00" departLane="best" departPos="random_free" departSpeed="max">
        <route edges="156261613#2 353154171#0 156261263 367938206 286011720#3 286011720#4 286011720#5 286011720#6 286011720#7 450298085 450298090#0 450298090#1 450298090#2 327728883 450298086"/>
    </vehicle>
    <vehicle id="9" depart="9.00" departLane="best" departPos="random_free" departSpeed="max">
        <route edges="303948361#1 156261342#1 156261342#2 303948405#0 156261312#0 -367938203 -367938206 327728882#5 -156261225 -156261613#2 -156261613#1 -156261613#0 156261613#0"/>
    </vehicle>
    <vehicle id="10" depart="10.00" departLane="best" departPos="random_free" departSpeed="max">
        <route edges="156261263 367938206 286011720#3 156261342#0 156261342#1 303948349#0 303948349#1 303948407"/>
    </vehicle>
    <vehicle id="11" depart="11.00" departLane="best" departPos="random_free" departSpeed="max">
        <route edges="-28410233#0 285027169 285027170#0 285027170#1 449237832 -367619846#2 -367619846#1 -367619846#0 367619835#0 367619835#1 -367619833#1 156261445"/>
    </vehicle>
    <vehicle id="12" depart="12.00" departLane="best" departPos="random_free" departSpeed="max">
        <route edges="449480716 -449480716 -449480717#2 -156261168 156261310#1 156261190"/>
    </vehicle>
    <vehicle id="14" depart="14.00" departLane="best" departPos="random_free" departSpeed="max">
        <route edges="451286564 156261495#2 284980115#1 284980115#2 367613996 448270567#4 448270567#5 448270567#6 448270567#7"/>
    </vehicle>
    <vehicle id="15" depart="15.00" departLane="best" departPos="random_free" departSpeed="max">
        <route edges="361247463#1 451286564 156261495#2 284980115#1 284980115#2 284980115#3 284980115#4 284980115#5 284980115#6 204363485 448270567#0 448270567#1 -367938218"/>
    </vehicle>
    <vehicle id="16" depart="16.00" departLane="best" departPos="random_free" departSpeed="max">
        <route edges="156261190 450298098 450298099 450298088#1 450298084 327728882#0 313526162 286011720#7 450298085 450298090#0 156261228 -303948346#0 303948361#0 303948361#1 156261342#1 303948349#0 303948349#1 303948349#2"/>
    </vehicle>
    <vehicle id="17" depart="17.00" departLane="best" departPos="random_free" departSpeed="max">
        <route edges="450298097 327728882#2 327728882#3 327728882#4 367938206 286011720#3 286011720#4 286011720#5 286011720#6 286011720#7 450298085 450298090#0 450298090#1 450298090#2 327728883 369538884 285027167 450298088#0 -450298099 -450298098 -156261190"/>
    </vehicle>
    <vehicle id="18" depart="18.00" departLane="best" departPos="random_free" departSpeed="max">
        <route edges="422082717#0 422082717#1 369538882#1 326480126 369538887#2 156261299#0"/>
    </vehicle>
    <vehicle id="19" depart="19.00" departLane="best" departPos="random_free" departSpeed="max">
        <route edges="36054622#0 36054622#1 450298087 450298089 285027167 450298088#0 450298088#1 450298084 327728882#0 327728882#1 327728882#2 327728882#3 327728882#4 327728882#5 327728882#6 -156261243 353154174#1"/>
    </vehicle>
    <vehicle id="20" depart="20.00" departLane="best" departPos="random_free" departSpeed="max">
        <route edges="422082728#3 422082728#4 422082728#5 418865870#1 -422082701#0 36054622#1 450298087 450298089 285027167 450298088#0 450298088#1 450298084 327728882#0 327728882#1"/>
    </vehicle>
    <vehicle id="21" depart="21.00" departLane="best" departPos="random_free" departSpeed="max">
        <route edges="353154174#1 -353154174#1 156261243 327728882#7 204363485 448270567#0 28356564 286011720#0 286011720#1 286011720#2 286011720#3 156261342#0 156261342#1 303948349#0 303948349#1 303948407 -361247463#1"/>
    </vehicle>
    <vehicle id="22" depart="22.00" departLane="best" departPos="random_free" departSpeed="max">
        <route edges="450298099 450298088#1 450298084 327728882#0 327728882#1 327728882#2 327728882#3 327728882#4 327728882#5 -156261225 -156261613#2 -156261613#1 156261251"/>
    </vehicle>
    <vehicle id="23" depart="23.00" departLane="best" departPos="random_free" departSpeed="max">
        <route edges="-156261251 156261613#1 156261613#2 353154171#0"/>
    </vehicle>
    <vehicle id="24" depart="24.00" departLane="best" departPos="random_free" departSpeed="max">
        <route edges="156261230 -156261356#2 156261250 -317197954#4 -317197954#3 156261613#2 353154171#0 156261263 367938206 286011720#3 286011720#4 286011720#5 303948410 -303948410"/>
    </vehicle>
    <vehicle id="25" depart="25.00" departLane="best" departPos="random_free" departSpeed="max">
        <route edges="367619845#2 367619846#0 367619846#1 367619846#2 367619840 285027170#3 285027170#0 36054622#0 422082701#0 -418865870#1 -422082728#5"/>
    </vehicle>
    <vehicle id="26" depart="26.00" departLane="best" departPos="random_free" departSpeed="max">
        <route edges="-28410233#0 285027169 285027170#0 36054622#0 36054622#1 450298087 450298089 285027167 450298088#0 450298088#1 450298084 327728882#0 327728882#1 327728882#2 327728882#3 327728882#4 327728882#5 327728882#6 -156261243 156261243"/>
    </vehicle>
    <vehicle id="27" depart="27.00" departLane="best" departPos="random_free" departSpeed="max">
        <route edges="-156261228 156261228 -303948346#0 303948361#0 303948361#1 156261342#1 156261342#2 303948405#0 156261312#0 156261312#1 -119109423#1 -303948430"/>
    </vehicle>
</routes>
