<?xml version="1.0" encoding="UTF-8"?>
<!-- generated on 2018-05-03 18:10:53.933695 by $Id$
  options: -n mapgrid.net.xml -e 28 -l <doubleminus>trip-attributes=departLane="best" departSpeed="max" departPos="random_free" -o trips.trips.xml
-->
<routes xmlns:xsi="http://www.w3.org/2001/XMLSchema-instance" xsi:noNamespaceSchemaLocation="http://sumo.dlr.de/xsd/routes_file.xsd">
    <trip id="0" depart="0.00" from="-422082677" to="-28410233#0" departLane="best" departSpeed="max" departPos="random_free"/>
    <trip id="1" depart="1.00" from="-353154174#1" to="-156261190" departLane="best" departSpeed="max" departPos="random_free"/>
    <trip id="2" depart="2.00" from="156261310#0" to="284980115#5" departLane="best" departSpeed="max" departPos="random_free"/>
    <trip id="3" depart="3.00" from="-367938218" to="327728882#6" departLane="best" departSpeed="max" departPos="random_free"/>
    <trip id="4" depart="4.00" from="156261190" to="-156261495#2" departLane="best" departSpeed="max" departPos="random_free"/>
    <trip id="5" depart="5.00" from="36048880#0" to="450525270#1" departLane="best" departSpeed="max" departPos="random_free"/>
    <trip id="6" depart="6.00" from="-303948346#0" to="-422082728#0" departLane="best" departSpeed="max" departPos="random_free"/>
    <trip id="7" depart="7.00" from="28410233#0" to="450298098" departLane="best" departSpeed="max" departPos="random_free"/>
    <trip id="8" depart="8.00" from="-156261488" to="317197955" departLane="best" departSpeed="max" departPos="random_free"/>
    <trip id="9" depart="9.00" from="285027169" to="156261557" departLane="best" departSpeed="max" departPos="random_free"/>
    <trip id="10" depart="10.00" from="156261194" to="-156261445" departLane="best" departSpeed="max" departPos="random_free"/>
    <trip id="11" depart="11.00" from="284980115#1" to="-418865870#1" departLane="best" departSpeed="max" departPos="random_free"/>
    <trip id="12" depart="12.00" from="448270567#2" to="285027169" departLane="best" departSpeed="max" departPos="random_free"/>
    <trip id="13" depart="13.00" from="418865870#0" to="-450298097" departLane="best" departSpeed="max" departPos="random_free"/>
    <trip id="14" depart="14.00" from="418865870#1" to="156261312#0" departLane="best" departSpeed="max" departPos="random_free"/>
    <trip id="15" depart="15.00" from="156261488" to="303948405#1" departLane="best" departSpeed="max" departPos="random_free"/>
    <trip id="16" depart="16.00" from="-156261225" to="367613991" departLane="best" departSpeed="max" departPos="random_free"/>
    <trip id="17" depart="17.00" from="286011720#0" to="-156261225" departLane="best" departSpeed="max" departPos="random_free"/>
    <trip id="18" depart="18.00" from="422082668" to="-450525271" departLane="best" departSpeed="max" departPos="random_free"/>
    <trip id="19" depart="19.00" from="-156261228" to="317197954#0" departLane="best" departSpeed="max" departPos="random_free"/>
    <trip id="20" depart="20.00" from="303948412#0" to="448270567#2" departLane="best" departSpeed="max" departPos="random_free"/>
    <trip id="21" depart="21.00" from="156261299#1" to="327728882#0" departLane="best" departSpeed="max" departPos="random_free"/>
    <trip id="22" depart="22.00" from="156261351#0" to="156261495#1" departLane="best" departSpeed="max" departPos="random_free"/>
    <trip id="23" depart="23.00" from="-450525268" to="156261342#0" departLane="best" departSpeed="max" departPos="random_free"/>
    <trip id="24" depart="24.00" from="286011720#0" to="-156261263" departLane="best" departSpeed="max" departPos="random_free"/>
    <trip id="25" depart="25.00" from="418865870#0" to="-36048880#1" departLane="best" departSpeed="max" departPos="random_free"/>
    <trip id="26" depart="26.00" from="303948412#0" to="286011720#3" departLane="best" departSpeed="max" departPos="random_free"/>
    <trip id="27" depart="27.00" from="156261251" to="28410277#4" departLane="best" departSpeed="max" departPos="random_free"/>
</routes>
