<?xml version="1.0" encoding="UTF-8"?>
<!-- generated on 2018-04-08 14:50:41.759352 by $Id$
  options: -n mapgrid.net.xml -e 28 -l <doubleminus>trip-attributes=departLane="best" departSpeed="max" departPos="random_free" -o trips.trips.xml
-->
<routes xmlns:xsi="http://www.w3.org/2001/XMLSchema-instance" xsi:noNamespaceSchemaLocation="http://sumo.dlr.de/xsd/routes_file.xsd">
    <trip id="0" depart="0.00" from="0/8to1/8" to="7/6to6/6" departLane="best" departSpeed="max" departPos="random_free"/>
    <trip id="1" depart="1.00" from="4/1to4/0" to="4/10to4/9" departLane="best" departSpeed="max" departPos="random_free"/>
    <trip id="2" depart="2.00" from="3/8to2/8" to="8/3to8/4" departLane="best" departSpeed="max" departPos="random_free"/>
    <trip id="3" depart="3.00" from="7/8to7/7" to="9/4to10/4" departLane="best" departSpeed="max" departPos="random_free"/>
    <trip id="4" depart="4.00" from="3/5to3/4" to="9/1to10/1" departLane="best" departSpeed="max" departPos="random_free"/>
    <trip id="5" depart="5.00" from="1/1to1/0" to="6/10to7/10" departLane="best" departSpeed="max" departPos="random_free"/>
    <trip id="6" depart="6.00" from="8/5to8/6" to="9/5to9/4" departLane="best" departSpeed="max" departPos="random_free"/>
    <trip id="7" depart="7.00" from="8/1to8/0" to="3/3to3/4" departLane="best" departSpeed="max" departPos="random_free"/>
    <trip id="8" depart="8.00" from="10/4to9/4" to="2/0to1/0" departLane="best" departSpeed="max" departPos="random_free"/>
    <trip id="9" depart="9.00" from="6/4to6/5" to="8/10to9/10" departLane="best" departSpeed="max" departPos="random_free"/>
    <trip id="10" depart="10.00" from="4/8to4/7" to="2/7to3/7" departLane="best" departSpeed="max" departPos="random_free"/>
    <trip id="11" depart="11.00" from="0/2to1/2" to="7/9to7/10" departLane="best" departSpeed="max" departPos="random_free"/>
    <trip id="12" depart="12.00" from="7/3to8/3" to="1/3to1/2" departLane="best" departSpeed="max" departPos="random_free"/>
    <trip id="13" depart="13.00" from="10/9to10/8" to="5/7to5/6" departLane="best" departSpeed="max" departPos="random_free"/>
    <trip id="14" depart="14.00" from="5/4to6/4" to="3/9to3/8" departLane="best" departSpeed="max" departPos="random_free"/>
    <trip id="15" depart="15.00" from="2/4to2/3" to="3/9to2/9" departLane="best" departSpeed="max" departPos="random_free"/>
    <trip id="16" depart="16.00" from="0/3to0/4" to="4/8to4/7" departLane="best" departSpeed="max" departPos="random_free"/>
    <trip id="17" depart="17.00" from="10/8to10/9" to="6/5to7/5" departLane="best" departSpeed="max" departPos="random_free"/>
    <trip id="18" depart="18.00" from="7/1to7/0" to="8/9to8/10" departLane="best" departSpeed="max" departPos="random_free"/>
    <trip id="19" depart="19.00" from="8/0to7/0" to="5/8to6/8" departLane="best" departSpeed="max" departPos="random_free"/>
    <trip id="20" depart="20.00" from="6/10to7/10" to="2/4to3/4" departLane="best" departSpeed="max" departPos="random_free"/>
    <trip id="21" depart="21.00" from="7/4to7/3" to="2/0to2/1" departLane="best" departSpeed="max" departPos="random_free"/>
    <trip id="22" depart="22.00" from="4/9to4/10" to="7/9to6/9" departLane="best" departSpeed="max" departPos="random_free"/>
    <trip id="23" depart="23.00" from="4/9to5/9" to="7/10to6/10" departLane="best" departSpeed="max" departPos="random_free"/>
    <trip id="24" depart="24.00" from="6/9to6/10" to="0/3to0/4" departLane="best" departSpeed="max" departPos="random_free"/>
    <trip id="25" depart="25.00" from="2/2to3/2" to="9/1to9/0" departLane="best" departSpeed="max" departPos="random_free"/>
    <trip id="26" depart="26.00" from="1/5to1/6" to="1/0to0/0" departLane="best" departSpeed="max" departPos="random_free"/>
    <trip id="27" depart="27.00" from="4/2to3/2" to="6/10to5/10" departLane="best" departSpeed="max" departPos="random_free"/>
</routes>
