<?xml version="1.0" encoding="UTF-8"?>
<!-- generated on 2018-05-06 14:06:02.907357 by $Id$
  options: -n mapgrid.net.xml -e 38 -l <doubleminus>trip-attributes=departLane="best" departSpeed="max" departPos="random_free" -o trips.trips.xml
-->
<routes xmlns:xsi="http://www.w3.org/2001/XMLSchema-instance" xsi:noNamespaceSchemaLocation="http://sumo.dlr.de/xsd/routes_file.xsd">
    <trip id="0" depart="0.00" from="156261190" to="353154174#0" departLane="best" departSpeed="max" departPos="random_free"/>
    <trip id="1" depart="1.00" from="448270567#1" to="369538882#2" departLane="best" departSpeed="max" departPos="random_free"/>
    <trip id="2" depart="2.00" from="28410233#1" to="308511913" departLane="best" departSpeed="max" departPos="random_free"/>
    <trip id="3" depart="3.00" from="-156261488" to="353154171#3" departLane="best" departSpeed="max" departPos="random_free"/>
    <trip id="4" depart="4.00" from="-156261312#1" to="-28410277#3" departLane="best" departSpeed="max" departPos="random_free"/>
    <trip id="5" depart="5.00" from="156261310#1" to="-156261190" departLane="best" departSpeed="max" departPos="random_free"/>
    <trip id="6" depart="6.00" from="422082717#1" to="156261263" departLane="best" departSpeed="max" departPos="random_free"/>
    <trip id="7" depart="7.00" from="156261251" to="156261190" departLane="best" departSpeed="max" departPos="random_free"/>
    <trip id="8" depart="8.00" from="327728882#5" to="447615375" departLane="best" departSpeed="max" departPos="random_free"/>
    <trip id="9" depart="9.00" from="450298094" to="222800434#1" departLane="best" departSpeed="max" departPos="random_free"/>
    <trip id="10" depart="10.00" from="-28410233#0" to="156261523" departLane="best" departSpeed="max" departPos="random_free"/>
    <trip id="11" depart="11.00" from="28716610" to="156261228" departLane="best" departSpeed="max" departPos="random_free"/>
    <trip id="12" depart="12.00" from="540603497#1" to="369538883#3" departLane="best" departSpeed="max" departPos="random_free"/>
    <trip id="13" depart="13.00" from="-156261367" to="-450298099" departLane="best" departSpeed="max" departPos="random_free"/>
    <trip id="14" depart="14.00" from="-451286564" to="303948405#0" departLane="best" departSpeed="max" departPos="random_free"/>
    <trip id="15" depart="15.00" from="-471698306#1" to="-156261225" departLane="best" departSpeed="max" departPos="random_free"/>
    <trip id="16" depart="16.00" from="-36048880#0" to="369538887#2" departLane="best" departSpeed="max" departPos="random_free"/>
    <trip id="17" depart="17.00" from="156261488" to="28356498#0" departLane="best" departSpeed="max" departPos="random_free"/>
    <trip id="18" depart="18.00" from="156261613#0" to="-156261356#2" departLane="best" departSpeed="max" departPos="random_free"/>
    <trip id="19" depart="19.00" from="422082717#1" to="-422082701#1" departLane="best" departSpeed="max" departPos="random_free"/>
    <trip id="20" depart="20.00" from="222800434#1" to="448270567#7" departLane="best" departSpeed="max" departPos="random_free"/>
    <trip id="21" depart="21.00" from="369538882#2" to="-156261190" departLane="best" departSpeed="max" departPos="random_free"/>
    <trip id="22" depart="22.00" from="156261488" to="303948405#0" departLane="best" departSpeed="max" departPos="random_free"/>
    <trip id="23" depart="23.00" from="353154174#1" to="-367619842" departLane="best" departSpeed="max" departPos="random_free"/>
    <trip id="24" depart="24.00" from="450298090#2" to="450298093" departLane="best" departSpeed="max" departPos="random_free"/>
    <trip id="25" depart="25.00" from="156261312#1" to="156261228" departLane="best" departSpeed="max" departPos="random_free"/>
    <trip id="26" depart="26.00" from="451286570" to="540603497#0" departLane="best" departSpeed="max" departPos="random_free"/>
    <trip id="27" depart="27.00" from="-156261495#2" to="36048880#1" departLane="best" departSpeed="max" departPos="random_free"/>
    <trip id="28" depart="28.00" from="119109423#0" to="540603497#0" departLane="best" departSpeed="max" departPos="random_free"/>
    <trip id="29" depart="29.00" from="284980115#8" to="-156261190" departLane="best" departSpeed="max" departPos="random_free"/>
    <trip id="30" depart="30.00" from="36048880#1" to="-28410233#0" departLane="best" departSpeed="max" departPos="random_free"/>
    <trip id="31" depart="31.00" from="317197954#2" to="353154185" departLane="best" departSpeed="max" departPos="random_free"/>
    <trip id="32" depart="32.00" from="367613991" to="119109424" departLane="best" departSpeed="max" departPos="random_free"/>
    <trip id="33" depart="33.00" from="156261312#1" to="-303948405#0" departLane="best" departSpeed="max" departPos="random_free"/>
    <trip id="34" depart="34.00" from="156261342#0" to="327728882#7" departLane="best" departSpeed="max" departPos="random_free"/>
    <trip id="35" depart="35.00" from="-156261488" to="451286570" departLane="best" departSpeed="max" departPos="random_free"/>
    <trip id="36" depart="36.00" from="327728882#4" to="303948412#1" departLane="best" departSpeed="max" departPos="random_free"/>
    <trip id="37" depart="37.00" from="-422082701#1" to="367619842" departLane="best" departSpeed="max" departPos="random_free"/>
</routes>
