<?xml version="1.0" encoding="UTF-8"?>
<!-- generated on 2018-05-04 23:27:08.217177 by $Id$
  options: -n mapgrid.net.xml -e 28 -l <doubleminus>trip-attributes=departLane="best" departSpeed="max" departPos="random_free" -o trips.trips.xml
-->
<routes xmlns:xsi="http://www.w3.org/2001/XMLSchema-instance" xsi:noNamespaceSchemaLocation="http://sumo.dlr.de/xsd/routes_file.xsd">
    <trip id="0" depart="0.00" from="-367619842" to="-303948346#1" departLane="best" departSpeed="max" departPos="random_free"/>
    <trip id="1" depart="1.00" from="-156261225" to="-156261312#1" departLane="best" departSpeed="max" departPos="random_free"/>
    <trip id="2" depart="2.00" from="369538882#2" to="284980115#8" departLane="best" departSpeed="max" departPos="random_free"/>
    <trip id="3" depart="3.00" from="367938203" to="156261299#0" departLane="best" departSpeed="max" departPos="random_free"/>
    <trip id="4" depart="4.00" from="303948421#1" to="307395967#0" departLane="best" departSpeed="max" departPos="random_free"/>
    <trip id="5" depart="5.00" from="450525269" to="156261495#0" departLane="best" departSpeed="max" departPos="random_free"/>
    <trip id="6" depart="6.00" from="450298092" to="317197955" departLane="best" departSpeed="max" departPos="random_free"/>
    <trip id="7" depart="7.00" from="317197953" to="367619835#0" departLane="best" departSpeed="max" departPos="random_free"/>
    <trip id="8" depart="8.00" from="-317197954#2" to="449480717#2" departLane="best" departSpeed="max" departPos="random_free"/>
    <trip id="9" depart="9.00" from="-156261502#3" to="-450298099" departLane="best" departSpeed="max" departPos="random_free"/>
    <trip id="10" depart="10.00" from="-303948407" to="369538880" departLane="best" departSpeed="max" departPos="random_free"/>
    <trip id="11" depart="11.00" from="303948421#1" to="307395967#0" departLane="best" departSpeed="max" departPos="random_free"/>
    <trip id="12" depart="12.00" from="284980115#8" to="-376918047" departLane="best" departSpeed="max" departPos="random_free"/>
    <trip id="13" depart="13.00" from="327728882#6" to="156261554" departLane="best" departSpeed="max" departPos="random_free"/>
    <trip id="14" depart="14.00" from="367619842" to="-422082728#1" departLane="best" departSpeed="max" departPos="random_free"/>
    <trip id="15" depart="15.00" from="448270571" to="450298097" departLane="best" departSpeed="max" departPos="random_free"/>
    <trip id="16" depart="16.00" from="307395967#1" to="222799177" departLane="best" departSpeed="max" departPos="random_free"/>
    <trip id="17" depart="17.00" from="448270567#6" to="-156261351#1" departLane="best" departSpeed="max" departPos="random_free"/>
    <trip id="18" depart="18.00" from="-317197954#2" to="-326480147" departLane="best" departSpeed="max" departPos="random_free"/>
    <trip id="19" depart="19.00" from="422082701#1" to="-156261342#0" departLane="best" departSpeed="max" departPos="random_free"/>
    <trip id="20" depart="20.00" from="422082717#0" to="-361247463#0" departLane="best" departSpeed="max" departPos="random_free"/>
    <trip id="21" depart="21.00" from="367938203" to="-361247463#0" departLane="best" departSpeed="max" departPos="random_free"/>
    <trip id="22" depart="22.00" from="156261554" to="-422082668" departLane="best" departSpeed="max" departPos="random_free"/>
    <trip id="23" depart="23.00" from="369538882#2" to="450298088#0" departLane="best" departSpeed="max" departPos="random_free"/>
    <trip id="24" depart="24.00" from="422082728#0" to="369652617" departLane="best" departSpeed="max" departPos="random_free"/>
    <trip id="25" depart="25.00" from="367619845#1" to="156261263" departLane="best" departSpeed="max" departPos="random_free"/>
    <trip id="26" depart="26.00" from="303948395#0" to="450298094" departLane="best" departSpeed="max" departPos="random_free"/>
    <trip id="27" depart="27.00" from="-156261351#1" to="156261190" departLane="best" departSpeed="max" departPos="random_free"/>
</routes>
