<?xml version="1.0" encoding="UTF-8"?>

<!-- generated on Fri Nov 24 12:14:22 2017 by SUMO netgenerate Version 0.30.0
<?xml version="1.0" encoding="UTF-8"?>

<configuration xmlns:xsi="http://www.w3.org/2001/XMLSchema-instance" xsi:noNamespaceSchemaLocation="http://sumo.dlr.de/xsd/netgenerateConfiguration.xsd">

    <grid_network>
        <grid value="true"/>
        <grid.number value="6"/>
        <grid.length value="10"/>
    </grid_network>

    <output>
        <output-file value="map.net.xml"/>
    </output>

    <tls_building>
        <tls.guess value="true"/>
    </tls_building>

    <building_defaults>
        <default.speed value="0.1"/>
    </building_defaults>

</configuration>
-->

<net version="0.27" xmlns:xsi="http://www.w3.org/2001/XMLSchema-instance" xsi:noNamespaceSchemaLocation="http://sumo.dlr.de/xsd/net_file.xsd">

    <location netOffset="0.00,0.00" convBoundary="0.00,0.00,50.00,50.00" origBoundary="0.00,0.00,50.00,50.00" projParameter="!"/>

    <edge id=":0/0_0" function="internal">
        <lane id=":0/0_0_0" index="0" speed="0.10" length="7.90" shape="-1.65,3.25 -1.34,1.11 -0.43,-0.43 1.11,-1.34 3.25,-1.65"/>
    </edge>
    <edge id=":0/0_1" function="internal">
        <lane id=":0/0_1_0" index="0" speed="0.10" length="2.80" shape="-1.65,3.25 -0.83,2.01 0.00,1.60 0.35,1.77"/>
    </edge>
    <edge id=":0/0_4" function="internal">
        <lane id=":0/0_4_0" index="0" speed="0.10" length="2.02" shape="0.35,1.77 0.83,2.01 1.65,3.25"/>
    </edge>
    <edge id=":0/0_2" function="internal">
        <lane id=":0/0_2_0" index="0" speed="0.10" length="2.58" shape="3.25,1.65 2.55,1.75 2.05,2.05 1.75,2.55 1.65,3.25"/>
    </edge>
    <edge id=":0/0_3" function="internal">
        <lane id=":0/0_3_0" index="0" speed="0.10" length="2.20" shape="3.25,1.65 2.01,0.83 1.69,0.19"/>
    </edge>
    <edge id=":0/0_5" function="internal">
        <lane id=":0/0_5_0" index="0" speed="0.10" length="2.62" shape="1.69,0.19 1.60,0.00 2.01,-0.83 3.25,-1.65"/>
    </edge>
    <edge id=":0/1_0" function="internal">
        <lane id=":0/1_0_0" index="0" speed="0.10" length="9.50" shape="-1.65,14.75 -1.65,5.25"/>
    </edge>
    <edge id=":0/1_1" function="internal">
        <lane id=":0/1_1_0" index="0" speed="0.10" length="5.28" shape="-1.65,14.75 -1.25,11.95 -0.05,9.95 0.05,9.89"/>
    </edge>
    <edge id=":0/1_2" function="internal">
        <lane id=":0/1_2_0" index="0" speed="0.10" length="2.41" shape="-1.65,14.75 -0.83,13.51 0.00,13.10"/>
    </edge>
    <edge id=":0/1_9" function="internal">
        <lane id=":0/1_9_0" index="0" speed="0.10" length="5.04" shape="0.05,9.89 1.95,8.75 4.75,8.35"/>
    </edge>
    <edge id=":0/1_10" function="internal">
        <lane id=":0/1_10_0" index="0" speed="0.10" length="2.41" shape="0.00,13.10 0.83,13.51 1.65,14.75"/>
    </edge>
    <edge id=":0/1_3" function="internal">
        <lane id=":0/1_3_0" index="0" speed="0.10" length="5.00" shape="4.75,11.65 3.39,11.84 2.43,12.43 1.84,13.39 1.65,14.75"/>
    </edge>
    <edge id=":0/1_4" function="internal">
        <lane id=":0/1_4_0" index="0" speed="0.10" length="10.32" shape="4.75,11.65 1.95,11.25 -0.05,10.05 -1.25,8.05 -1.65,5.25"/>
    </edge>
    <edge id=":0/1_5" function="internal">
        <lane id=":0/1_5_0" index="0" speed="0.10" length="4.82" shape="4.75,11.65 3.51,10.83 3.10,10.00 3.51,9.18 4.75,8.35"/>
    </edge>
    <edge id=":0/1_6" function="internal">
        <lane id=":0/1_6_0" index="0" speed="0.10" length="5.00" shape="1.65,5.25 1.84,6.61 2.42,7.57 3.39,8.16 4.75,8.35"/>
    </edge>
    <edge id=":0/1_7" function="internal">
        <lane id=":0/1_7_0" index="0" speed="0.10" length="9.50" shape="1.65,5.25 1.65,14.75"/>
    </edge>
    <edge id=":0/1_8" function="internal">
        <lane id=":0/1_8_0" index="0" speed="0.10" length="2.41" shape="1.65,5.25 0.82,6.49 -0.00,6.90"/>
    </edge>
    <edge id=":0/1_11" function="internal">
        <lane id=":0/1_11_0" index="0" speed="0.10" length="2.41" shape="-0.00,6.90 -0.83,6.49 -1.65,5.25"/>
    </edge>
    <edge id=":0/2_0" function="internal">
        <lane id=":0/2_0_0" index="0" speed="0.10" length="9.50" shape="-1.65,24.75 -1.65,15.25"/>
    </edge>
    <edge id=":0/2_1" function="internal">
        <lane id=":0/2_1_0" index="0" speed="0.10" length="5.28" shape="-1.65,24.75 -1.25,21.95 -0.05,19.95 0.05,19.89"/>
    </edge>
    <edge id=":0/2_2" function="internal">
        <lane id=":0/2_2_0" index="0" speed="0.10" length="2.41" shape="-1.65,24.75 -0.83,23.51 0.00,23.10"/>
    </edge>
    <edge id=":0/2_9" function="internal">
        <lane id=":0/2_9_0" index="0" speed="0.10" length="5.04" shape="0.05,19.89 1.95,18.75 4.75,18.35"/>
    </edge>
    <edge id=":0/2_10" function="internal">
        <lane id=":0/2_10_0" index="0" speed="0.10" length="2.41" shape="0.00,23.10 0.83,23.51 1.65,24.75"/>
    </edge>
    <edge id=":0/2_3" function="internal">
        <lane id=":0/2_3_0" index="0" speed="0.10" length="5.00" shape="4.75,21.65 3.39,21.84 2.43,22.42 1.84,23.39 1.65,24.75"/>
    </edge>
    <edge id=":0/2_4" function="internal">
        <lane id=":0/2_4_0" index="0" speed="0.10" length="10.32" shape="4.75,21.65 1.95,21.25 -0.05,20.05 -1.25,18.05 -1.65,15.25"/>
    </edge>
    <edge id=":0/2_5" function="internal">
        <lane id=":0/2_5_0" index="0" speed="0.10" length="4.82" shape="4.75,21.65 3.51,20.83 3.10,20.00 3.51,19.18 4.75,18.35"/>
    </edge>
    <edge id=":0/2_6" function="internal">
        <lane id=":0/2_6_0" index="0" speed="0.10" length="5.00" shape="1.65,15.25 1.84,16.61 2.42,17.57 3.39,18.16 4.75,18.35"/>
    </edge>
    <edge id=":0/2_7" function="internal">
        <lane id=":0/2_7_0" index="0" speed="0.10" length="9.50" shape="1.65,15.25 1.65,24.75"/>
    </edge>
    <edge id=":0/2_8" function="internal">
        <lane id=":0/2_8_0" index="0" speed="0.10" length="2.41" shape="1.65,15.25 0.83,16.49 0.00,16.90"/>
    </edge>
    <edge id=":0/2_11" function="internal">
        <lane id=":0/2_11_0" index="0" speed="0.10" length="2.41" shape="0.00,16.90 -0.83,16.49 -1.65,15.25"/>
    </edge>
    <edge id=":0/3_0" function="internal">
        <lane id=":0/3_0_0" index="0" speed="0.10" length="9.50" shape="-1.65,34.75 -1.65,25.25"/>
    </edge>
    <edge id=":0/3_1" function="internal">
        <lane id=":0/3_1_0" index="0" speed="0.10" length="5.28" shape="-1.65,34.75 -1.25,31.95 -0.05,29.95 0.05,29.89"/>
    </edge>
    <edge id=":0/3_2" function="internal">
        <lane id=":0/3_2_0" index="0" speed="0.10" length="2.41" shape="-1.65,34.75 -0.83,33.51 0.00,33.10"/>
    </edge>
    <edge id=":0/3_9" function="internal">
        <lane id=":0/3_9_0" index="0" speed="0.10" length="5.04" shape="0.05,29.89 1.95,28.75 4.75,28.35"/>
    </edge>
    <edge id=":0/3_10" function="internal">
        <lane id=":0/3_10_0" index="0" speed="0.10" length="2.41" shape="0.00,33.10 0.83,33.51 1.65,34.75"/>
    </edge>
    <edge id=":0/3_3" function="internal">
        <lane id=":0/3_3_0" index="0" speed="0.10" length="5.00" shape="4.75,31.65 3.39,31.84 2.43,32.42 1.84,33.39 1.65,34.75"/>
    </edge>
    <edge id=":0/3_4" function="internal">
        <lane id=":0/3_4_0" index="0" speed="0.10" length="10.32" shape="4.75,31.65 1.95,31.25 -0.05,30.05 -1.25,28.05 -1.65,25.25"/>
    </edge>
    <edge id=":0/3_5" function="internal">
        <lane id=":0/3_5_0" index="0" speed="0.10" length="4.82" shape="4.75,31.65 3.51,30.82 3.10,30.00 3.51,29.18 4.75,28.35"/>
    </edge>
    <edge id=":0/3_6" function="internal">
        <lane id=":0/3_6_0" index="0" speed="0.10" length="5.00" shape="1.65,25.25 1.84,26.61 2.42,27.57 3.39,28.16 4.75,28.35"/>
    </edge>
    <edge id=":0/3_7" function="internal">
        <lane id=":0/3_7_0" index="0" speed="0.10" length="9.50" shape="1.65,25.25 1.65,34.75"/>
    </edge>
    <edge id=":0/3_8" function="internal">
        <lane id=":0/3_8_0" index="0" speed="0.10" length="2.41" shape="1.65,25.25 0.83,26.49 0.00,26.90"/>
    </edge>
    <edge id=":0/3_11" function="internal">
        <lane id=":0/3_11_0" index="0" speed="0.10" length="2.41" shape="0.00,26.90 -0.83,26.49 -1.65,25.25"/>
    </edge>
    <edge id=":0/4_0" function="internal">
        <lane id=":0/4_0_0" index="0" speed="0.10" length="9.50" shape="-1.65,44.75 -1.65,35.25"/>
    </edge>
    <edge id=":0/4_1" function="internal">
        <lane id=":0/4_1_0" index="0" speed="0.10" length="5.28" shape="-1.65,44.75 -1.25,41.95 -0.05,39.95 0.05,39.89"/>
    </edge>
    <edge id=":0/4_2" function="internal">
        <lane id=":0/4_2_0" index="0" speed="0.10" length="2.41" shape="-1.65,44.75 -0.83,43.51 0.00,43.10"/>
    </edge>
    <edge id=":0/4_9" function="internal">
        <lane id=":0/4_9_0" index="0" speed="0.10" length="5.04" shape="0.05,39.89 1.95,38.75 4.75,38.35"/>
    </edge>
    <edge id=":0/4_10" function="internal">
        <lane id=":0/4_10_0" index="0" speed="0.10" length="2.41" shape="0.00,43.10 0.83,43.51 1.65,44.75"/>
    </edge>
    <edge id=":0/4_3" function="internal">
        <lane id=":0/4_3_0" index="0" speed="0.10" length="5.00" shape="4.75,41.65 3.39,41.84 2.43,42.42 1.84,43.39 1.65,44.75"/>
    </edge>
    <edge id=":0/4_4" function="internal">
        <lane id=":0/4_4_0" index="0" speed="0.10" length="10.32" shape="4.75,41.65 1.95,41.25 -0.05,40.05 -1.25,38.05 -1.65,35.25"/>
    </edge>
    <edge id=":0/4_5" function="internal">
        <lane id=":0/4_5_0" index="0" speed="0.10" length="4.82" shape="4.75,41.65 3.51,40.82 3.10,40.00 3.51,39.17 4.75,38.35"/>
    </edge>
    <edge id=":0/4_6" function="internal">
        <lane id=":0/4_6_0" index="0" speed="0.10" length="5.00" shape="1.65,35.25 1.84,36.61 2.42,37.57 3.39,38.16 4.75,38.35"/>
    </edge>
    <edge id=":0/4_7" function="internal">
        <lane id=":0/4_7_0" index="0" speed="0.10" length="9.50" shape="1.65,35.25 1.65,44.75"/>
    </edge>
    <edge id=":0/4_8" function="internal">
        <lane id=":0/4_8_0" index="0" speed="0.10" length="2.41" shape="1.65,35.25 0.83,36.49 0.00,36.90"/>
    </edge>
    <edge id=":0/4_11" function="internal">
        <lane id=":0/4_11_0" index="0" speed="0.10" length="2.41" shape="0.00,36.90 -0.83,36.49 -1.65,35.25"/>
    </edge>
    <edge id=":0/5_0" function="internal">
        <lane id=":0/5_0_0" index="0" speed="0.10" length="7.90" shape="3.25,51.65 1.11,51.34 -0.43,50.42 -1.34,48.89 -1.65,46.75"/>
    </edge>
    <edge id=":0/5_1" function="internal">
        <lane id=":0/5_1_0" index="0" speed="0.10" length="2.80" shape="3.25,51.65 2.01,50.82 1.60,50.00 1.77,49.65"/>
    </edge>
    <edge id=":0/5_4" function="internal">
        <lane id=":0/5_4_0" index="0" speed="0.10" length="2.02" shape="1.77,49.65 2.01,49.17 3.25,48.35"/>
    </edge>
    <edge id=":0/5_2" function="internal">
        <lane id=":0/5_2_0" index="0" speed="0.10" length="2.58" shape="1.65,46.75 1.75,47.45 2.05,47.95 2.55,48.25 3.25,48.35"/>
    </edge>
    <edge id=":0/5_3" function="internal">
        <lane id=":0/5_3_0" index="0" speed="0.10" length="2.20" shape="1.65,46.75 0.83,47.99 0.19,48.31"/>
    </edge>
    <edge id=":0/5_5" function="internal">
        <lane id=":0/5_5_0" index="0" speed="0.10" length="2.62" shape="0.19,48.31 0.00,48.40 -0.83,47.99 -1.65,46.75"/>
    </edge>
    <edge id=":1/0_0" function="internal">
        <lane id=":1/0_0_0" index="0" speed="0.10" length="5.00" shape="8.35,4.75 8.16,3.39 7.57,2.43 6.61,1.84 5.25,1.65"/>
    </edge>
    <edge id=":1/0_1" function="internal">
        <lane id=":1/0_1_0" index="0" speed="0.10" length="10.32" shape="8.35,4.75 8.75,1.95 9.95,-0.05 11.95,-1.25 14.75,-1.65"/>
    </edge>
    <edge id=":1/0_2" function="internal">
        <lane id=":1/0_2_0" index="0" speed="0.10" length="4.82" shape="8.35,4.75 9.17,3.51 10.00,3.10 10.82,3.51 11.65,4.75"/>
    </edge>
    <edge id=":1/0_3" function="internal">
        <lane id=":1/0_3_0" index="0" speed="0.10" length="5.00" shape="14.75,1.65 13.39,1.84 12.43,2.42 11.84,3.39 11.65,4.75"/>
    </edge>
    <edge id=":1/0_4" function="internal">
        <lane id=":1/0_4_0" index="0" speed="0.10" length="9.50" shape="14.75,1.65 5.25,1.65"/>
    </edge>
    <edge id=":1/0_5" function="internal">
        <lane id=":1/0_5_0" index="0" speed="0.10" length="2.41" shape="14.75,1.65 13.51,0.83 13.10,0.00"/>
    </edge>
    <edge id=":1/0_9" function="internal">
        <lane id=":1/0_9_0" index="0" speed="0.10" length="2.41" shape="13.10,0.00 13.51,-0.83 14.75,-1.65"/>
    </edge>
    <edge id=":1/0_6" function="internal">
        <lane id=":1/0_6_0" index="0" speed="0.10" length="9.50" shape="5.25,-1.65 14.75,-1.65"/>
    </edge>
    <edge id=":1/0_7" function="internal">
        <lane id=":1/0_7_0" index="0" speed="0.10" length="5.28" shape="5.25,-1.65 8.05,-1.25 10.05,-0.05 10.11,0.05"/>
    </edge>
    <edge id=":1/0_8" function="internal">
        <lane id=":1/0_8_0" index="0" speed="0.10" length="2.41" shape="5.25,-1.65 6.49,-0.82 6.90,0.00"/>
    </edge>
    <edge id=":1/0_10" function="internal">
        <lane id=":1/0_10_0" index="0" speed="0.10" length="5.04" shape="10.11,0.05 11.25,1.95 11.65,4.75"/>
    </edge>
    <edge id=":1/0_11" function="internal">
        <lane id=":1/0_11_0" index="0" speed="0.10" length="2.41" shape="6.90,0.00 6.49,0.83 5.25,1.65"/>
    </edge>
    <edge id=":1/1_0" function="internal">
        <lane id=":1/1_0_0" index="0" speed="0.10" length="5.00" shape="8.35,14.75 8.16,13.39 7.57,12.43 6.61,11.84 5.25,11.65"/>
    </edge>
    <edge id=":1/1_1" function="internal">
        <lane id=":1/1_1_0" index="0" speed="0.10" length="9.50" shape="8.35,14.75 8.35,5.25"/>
    </edge>
    <edge id=":1/1_2" function="internal">
        <lane id=":1/1_2_0" index="0" speed="0.10" length="5.28" shape="8.35,14.75 8.75,11.95 9.95,9.95 10.05,9.89"/>
    </edge>
    <edge id=":1/1_3" function="internal">
        <lane id=":1/1_3_0" index="0" speed="0.10" length="2.41" shape="8.35,14.75 9.17,13.51 10.00,13.10"/>
    </edge>
    <edge id=":1/1_16" function="internal">
        <lane id=":1/1_16_0" index="0" speed="0.10" length="5.04" shape="10.05,9.89 11.95,8.75 14.75,8.35"/>
    </edge>
    <edge id=":1/1_17" function="internal">
        <lane id=":1/1_17_0" index="0" speed="0.10" length="2.41" shape="10.00,13.10 10.82,13.51 11.65,14.75"/>
    </edge>
    <edge id=":1/1_4" function="internal">
        <lane id=":1/1_4_0" index="0" speed="0.10" length="5.00" shape="14.75,11.65 13.39,11.84 12.43,12.43 11.84,13.39 11.65,14.75"/>
    </edge>
    <edge id=":1/1_5" function="internal">
        <lane id=":1/1_5_0" index="0" speed="0.10" length="9.50" shape="14.75,11.65 5.25,11.65"/>
    </edge>
    <edge id=":1/1_6" function="internal">
        <lane id=":1/1_6_0" index="0" speed="0.10" length="10.32" shape="14.75,11.65 11.95,11.25 9.95,10.05 8.75,8.05 8.35,5.25"/>
    </edge>
    <edge id=":1/1_7" function="internal">
        <lane id=":1/1_7_0" index="0" speed="0.10" length="4.82" shape="14.75,11.65 13.51,10.83 13.10,10.00 13.51,9.18 14.75,8.35"/>
    </edge>
    <edge id=":1/1_8" function="internal">
        <lane id=":1/1_8_0" index="0" speed="0.10" length="5.00" shape="11.65,5.25 11.84,6.61 12.43,7.57 13.39,8.16 14.75,8.35"/>
    </edge>
    <edge id=":1/1_9" function="internal">
        <lane id=":1/1_9_0" index="0" speed="0.10" length="9.50" shape="11.65,5.25 11.65,14.75"/>
    </edge>
    <edge id=":1/1_10" function="internal">
        <lane id=":1/1_10_0" index="0" speed="0.10" length="5.28" shape="11.65,5.25 11.25,8.05 10.05,10.05 9.95,10.11"/>
    </edge>
    <edge id=":1/1_11" function="internal">
        <lane id=":1/1_11_0" index="0" speed="0.10" length="2.41" shape="11.65,5.25 10.83,6.49 10.00,6.90"/>
    </edge>
    <edge id=":1/1_18" function="internal">
        <lane id=":1/1_18_0" index="0" speed="0.10" length="5.04" shape="9.95,10.11 8.05,11.25 5.25,11.65"/>
    </edge>
    <edge id=":1/1_19" function="internal">
        <lane id=":1/1_19_0" index="0" speed="0.10" length="2.41" shape="10.00,6.90 9.18,6.49 8.35,5.25"/>
    </edge>
    <edge id=":1/1_12" function="internal">
        <lane id=":1/1_12_0" index="0" speed="0.10" length="5.00" shape="5.25,8.35 6.61,8.16 7.57,7.57 8.16,6.61 8.35,5.25"/>
    </edge>
    <edge id=":1/1_13" function="internal">
        <lane id=":1/1_13_0" index="0" speed="0.10" length="9.50" shape="5.25,8.35 14.75,8.35"/>
    </edge>
    <edge id=":1/1_14" function="internal">
        <lane id=":1/1_14_0" index="0" speed="0.10" length="10.32" shape="5.25,8.35 8.05,8.75 10.05,9.95 11.25,11.95 11.65,14.75"/>
    </edge>
    <edge id=":1/1_15" function="internal">
        <lane id=":1/1_15_0" index="0" speed="0.10" length="4.82" shape="5.25,8.35 6.49,9.17 6.90,10.00 6.49,10.82 5.25,11.65"/>
    </edge>
    <edge id=":1/2_0" function="internal">
        <lane id=":1/2_0_0" index="0" speed="0.10" length="5.00" shape="8.35,24.75 8.16,23.39 7.57,22.43 6.61,21.84 5.25,21.65"/>
    </edge>
    <edge id=":1/2_1" function="internal">
        <lane id=":1/2_1_0" index="0" speed="0.10" length="9.50" shape="8.35,24.75 8.35,15.25"/>
    </edge>
    <edge id=":1/2_2" function="internal">
        <lane id=":1/2_2_0" index="0" speed="0.10" length="5.28" shape="8.35,24.75 8.75,21.95 9.95,19.95 10.05,19.89"/>
    </edge>
    <edge id=":1/2_3" function="internal">
        <lane id=":1/2_3_0" index="0" speed="0.10" length="2.41" shape="8.35,24.75 9.17,23.51 10.00,23.10"/>
    </edge>
    <edge id=":1/2_16" function="internal">
        <lane id=":1/2_16_0" index="0" speed="0.10" length="5.04" shape="10.05,19.89 11.95,18.75 14.75,18.35"/>
    </edge>
    <edge id=":1/2_17" function="internal">
        <lane id=":1/2_17_0" index="0" speed="0.10" length="2.41" shape="10.00,23.10 10.82,23.51 11.65,24.75"/>
    </edge>
    <edge id=":1/2_4" function="internal">
        <lane id=":1/2_4_0" index="0" speed="0.10" length="5.00" shape="14.75,21.65 13.39,21.84 12.43,22.42 11.84,23.39 11.65,24.75"/>
    </edge>
    <edge id=":1/2_5" function="internal">
        <lane id=":1/2_5_0" index="0" speed="0.10" length="9.50" shape="14.75,21.65 5.25,21.65"/>
    </edge>
    <edge id=":1/2_6" function="internal">
        <lane id=":1/2_6_0" index="0" speed="0.10" length="10.32" shape="14.75,21.65 11.95,21.25 9.95,20.05 8.75,18.05 8.35,15.25"/>
    </edge>
    <edge id=":1/2_7" function="internal">
        <lane id=":1/2_7_0" index="0" speed="0.10" length="4.82" shape="14.75,21.65 13.51,20.83 13.10,20.00 13.51,19.18 14.75,18.35"/>
    </edge>
    <edge id=":1/2_8" function="internal">
        <lane id=":1/2_8_0" index="0" speed="0.10" length="5.00" shape="11.65,15.25 11.84,16.61 12.43,17.57 13.39,18.16 14.75,18.35"/>
    </edge>
    <edge id=":1/2_9" function="internal">
        <lane id=":1/2_9_0" index="0" speed="0.10" length="9.50" shape="11.65,15.25 11.65,24.75"/>
    </edge>
    <edge id=":1/2_10" function="internal">
        <lane id=":1/2_10_0" index="0" speed="0.10" length="5.28" shape="11.65,15.25 11.25,18.05 10.05,20.05 9.95,20.11"/>
    </edge>
    <edge id=":1/2_11" function="internal">
        <lane id=":1/2_11_0" index="0" speed="0.10" length="2.41" shape="11.65,15.25 10.83,16.49 10.00,16.90"/>
    </edge>
    <edge id=":1/2_18" function="internal">
        <lane id=":1/2_18_0" index="0" speed="0.10" length="5.04" shape="9.95,20.11 8.05,21.25 5.25,21.65"/>
    </edge>
    <edge id=":1/2_19" function="internal">
        <lane id=":1/2_19_0" index="0" speed="0.10" length="2.41" shape="10.00,16.90 9.18,16.49 8.35,15.25"/>
    </edge>
    <edge id=":1/2_12" function="internal">
        <lane id=":1/2_12_0" index="0" speed="0.10" length="5.00" shape="5.25,18.35 6.61,18.16 7.57,17.58 8.16,16.61 8.35,15.25"/>
    </edge>
    <edge id=":1/2_13" function="internal">
        <lane id=":1/2_13_0" index="0" speed="0.10" length="9.50" shape="5.25,18.35 14.75,18.35"/>
    </edge>
    <edge id=":1/2_14" function="internal">
        <lane id=":1/2_14_0" index="0" speed="0.10" length="10.32" shape="5.25,18.35 8.05,18.75 10.05,19.95 11.25,21.95 11.65,24.75"/>
    </edge>
    <edge id=":1/2_15" function="internal">
        <lane id=":1/2_15_0" index="0" speed="0.10" length="4.82" shape="5.25,18.35 6.49,19.17 6.90,20.00 6.49,20.82 5.25,21.65"/>
    </edge>
    <edge id=":1/3_0" function="internal">
        <lane id=":1/3_0_0" index="0" speed="0.10" length="5.00" shape="8.35,34.75 8.16,33.39 7.57,32.43 6.61,31.84 5.25,31.65"/>
    </edge>
    <edge id=":1/3_1" function="internal">
        <lane id=":1/3_1_0" index="0" speed="0.10" length="9.50" shape="8.35,34.75 8.35,25.25"/>
    </edge>
    <edge id=":1/3_2" function="internal">
        <lane id=":1/3_2_0" index="0" speed="0.10" length="5.28" shape="8.35,34.75 8.75,31.95 9.95,29.95 10.05,29.89"/>
    </edge>
    <edge id=":1/3_3" function="internal">
        <lane id=":1/3_3_0" index="0" speed="0.10" length="2.41" shape="8.35,34.75 9.17,33.51 10.00,33.10"/>
    </edge>
    <edge id=":1/3_16" function="internal">
        <lane id=":1/3_16_0" index="0" speed="0.10" length="5.04" shape="10.05,29.89 11.95,28.75 14.75,28.35"/>
    </edge>
    <edge id=":1/3_17" function="internal">
        <lane id=":1/3_17_0" index="0" speed="0.10" length="2.41" shape="10.00,33.10 10.82,33.51 11.65,34.75"/>
    </edge>
    <edge id=":1/3_4" function="internal">
        <lane id=":1/3_4_0" index="0" speed="0.10" length="5.00" shape="14.75,31.65 13.39,31.84 12.43,32.42 11.84,33.39 11.65,34.75"/>
    </edge>
    <edge id=":1/3_5" function="internal">
        <lane id=":1/3_5_0" index="0" speed="0.10" length="9.50" shape="14.75,31.65 5.25,31.65"/>
    </edge>
    <edge id=":1/3_6" function="internal">
        <lane id=":1/3_6_0" index="0" speed="0.10" length="10.32" shape="14.75,31.65 11.95,31.25 9.95,30.05 8.75,28.05 8.35,25.25"/>
    </edge>
    <edge id=":1/3_7" function="internal">
        <lane id=":1/3_7_0" index="0" speed="0.10" length="4.82" shape="14.75,31.65 13.51,30.82 13.10,30.00 13.51,29.18 14.75,28.35"/>
    </edge>
    <edge id=":1/3_8" function="internal">
        <lane id=":1/3_8_0" index="0" speed="0.10" length="5.00" shape="11.65,25.25 11.84,26.61 12.43,27.57 13.39,28.16 14.75,28.35"/>
    </edge>
    <edge id=":1/3_9" function="internal">
        <lane id=":1/3_9_0" index="0" speed="0.10" length="9.50" shape="11.65,25.25 11.65,34.75"/>
    </edge>
    <edge id=":1/3_10" function="internal">
        <lane id=":1/3_10_0" index="0" speed="0.10" length="5.28" shape="11.65,25.25 11.25,28.05 10.05,30.05 9.95,30.11"/>
    </edge>
    <edge id=":1/3_11" function="internal">
        <lane id=":1/3_11_0" index="0" speed="0.10" length="2.41" shape="11.65,25.25 10.83,26.49 10.00,26.90"/>
    </edge>
    <edge id=":1/3_18" function="internal">
        <lane id=":1/3_18_0" index="0" speed="0.10" length="5.04" shape="9.95,30.11 8.05,31.25 5.25,31.65"/>
    </edge>
    <edge id=":1/3_19" function="internal">
        <lane id=":1/3_19_0" index="0" speed="0.10" length="2.41" shape="10.00,26.90 9.18,26.49 8.35,25.25"/>
    </edge>
    <edge id=":1/3_12" function="internal">
        <lane id=":1/3_12_0" index="0" speed="0.10" length="5.00" shape="5.25,28.35 6.61,28.16 7.57,27.58 8.16,26.61 8.35,25.25"/>
    </edge>
    <edge id=":1/3_13" function="internal">
        <lane id=":1/3_13_0" index="0" speed="0.10" length="9.50" shape="5.25,28.35 14.75,28.35"/>
    </edge>
    <edge id=":1/3_14" function="internal">
        <lane id=":1/3_14_0" index="0" speed="0.10" length="10.32" shape="5.25,28.35 8.05,28.75 10.05,29.95 11.25,31.95 11.65,34.75"/>
    </edge>
    <edge id=":1/3_15" function="internal">
        <lane id=":1/3_15_0" index="0" speed="0.10" length="4.82" shape="5.25,28.35 6.49,29.17 6.90,30.00 6.49,30.82 5.25,31.65"/>
    </edge>
    <edge id=":1/4_0" function="internal">
        <lane id=":1/4_0_0" index="0" speed="0.10" length="5.00" shape="8.35,44.75 8.16,43.39 7.57,42.43 6.61,41.84 5.25,41.65"/>
    </edge>
    <edge id=":1/4_1" function="internal">
        <lane id=":1/4_1_0" index="0" speed="0.10" length="9.50" shape="8.35,44.75 8.35,35.25"/>
    </edge>
    <edge id=":1/4_2" function="internal">
        <lane id=":1/4_2_0" index="0" speed="0.10" length="5.28" shape="8.35,44.75 8.75,41.95 9.95,39.95 10.05,39.89"/>
    </edge>
    <edge id=":1/4_3" function="internal">
        <lane id=":1/4_3_0" index="0" speed="0.10" length="2.41" shape="8.35,44.75 9.17,43.51 10.00,43.10"/>
    </edge>
    <edge id=":1/4_16" function="internal">
        <lane id=":1/4_16_0" index="0" speed="0.10" length="5.04" shape="10.05,39.89 11.95,38.75 14.75,38.35"/>
    </edge>
    <edge id=":1/4_17" function="internal">
        <lane id=":1/4_17_0" index="0" speed="0.10" length="2.41" shape="10.00,43.10 10.82,43.51 11.65,44.75"/>
    </edge>
    <edge id=":1/4_4" function="internal">
        <lane id=":1/4_4_0" index="0" speed="0.10" length="5.00" shape="14.75,41.65 13.39,41.84 12.43,42.42 11.84,43.39 11.65,44.75"/>
    </edge>
    <edge id=":1/4_5" function="internal">
        <lane id=":1/4_5_0" index="0" speed="0.10" length="9.50" shape="14.75,41.65 5.25,41.65"/>
    </edge>
    <edge id=":1/4_6" function="internal">
        <lane id=":1/4_6_0" index="0" speed="0.10" length="10.32" shape="14.75,41.65 11.95,41.25 9.95,40.05 8.75,38.05 8.35,35.25"/>
    </edge>
    <edge id=":1/4_7" function="internal">
        <lane id=":1/4_7_0" index="0" speed="0.10" length="4.82" shape="14.75,41.65 13.51,40.82 13.10,40.00 13.51,39.17 14.75,38.35"/>
    </edge>
    <edge id=":1/4_8" function="internal">
        <lane id=":1/4_8_0" index="0" speed="0.10" length="5.00" shape="11.65,35.25 11.84,36.61 12.43,37.57 13.39,38.16 14.75,38.35"/>
    </edge>
    <edge id=":1/4_9" function="internal">
        <lane id=":1/4_9_0" index="0" speed="0.10" length="9.50" shape="11.65,35.25 11.65,44.75"/>
    </edge>
    <edge id=":1/4_10" function="internal">
        <lane id=":1/4_10_0" index="0" speed="0.10" length="5.28" shape="11.65,35.25 11.25,38.05 10.05,40.05 9.95,40.11"/>
    </edge>
    <edge id=":1/4_11" function="internal">
        <lane id=":1/4_11_0" index="0" speed="0.10" length="2.41" shape="11.65,35.25 10.83,36.49 10.00,36.90"/>
    </edge>
    <edge id=":1/4_18" function="internal">
        <lane id=":1/4_18_0" index="0" speed="0.10" length="5.04" shape="9.95,40.11 8.05,41.25 5.25,41.65"/>
    </edge>
    <edge id=":1/4_19" function="internal">
        <lane id=":1/4_19_0" index="0" speed="0.10" length="2.41" shape="10.00,36.90 9.18,36.49 8.35,35.25"/>
    </edge>
    <edge id=":1/4_12" function="internal">
        <lane id=":1/4_12_0" index="0" speed="0.10" length="5.00" shape="5.25,38.35 6.61,38.16 7.57,37.58 8.16,36.61 8.35,35.25"/>
    </edge>
    <edge id=":1/4_13" function="internal">
        <lane id=":1/4_13_0" index="0" speed="0.10" length="9.50" shape="5.25,38.35 14.75,38.35"/>
    </edge>
    <edge id=":1/4_14" function="internal">
        <lane id=":1/4_14_0" index="0" speed="0.10" length="10.32" shape="5.25,38.35 8.05,38.75 10.05,39.95 11.25,41.95 11.65,44.75"/>
    </edge>
    <edge id=":1/4_15" function="internal">
        <lane id=":1/4_15_0" index="0" speed="0.10" length="4.82" shape="5.25,38.35 6.49,39.18 6.90,40.00 6.49,40.83 5.25,41.65"/>
    </edge>
    <edge id=":1/5_0" function="internal">
        <lane id=":1/5_0_0" index="0" speed="0.10" length="9.50" shape="14.75,51.65 5.25,51.65"/>
    </edge>
    <edge id=":1/5_1" function="internal">
        <lane id=":1/5_1_0" index="0" speed="0.10" length="5.28" shape="14.75,51.65 11.95,51.25 9.95,50.05 9.89,49.95"/>
    </edge>
    <edge id=":1/5_2" function="internal">
        <lane id=":1/5_2_0" index="0" speed="0.10" length="2.41" shape="14.75,51.65 13.51,50.82 13.10,50.00"/>
    </edge>
    <edge id=":1/5_9" function="internal">
        <lane id=":1/5_9_0" index="0" speed="0.10" length="5.04" shape="9.89,49.95 8.75,48.05 8.35,45.25"/>
    </edge>
    <edge id=":1/5_10" function="internal">
        <lane id=":1/5_10_0" index="0" speed="0.10" length="2.41" shape="13.10,50.00 13.51,49.17 14.75,48.35"/>
    </edge>
    <edge id=":1/5_3" function="internal">
        <lane id=":1/5_3_0" index="0" speed="0.10" length="5.00" shape="11.65,45.25 11.84,46.61 12.43,47.57 13.39,48.16 14.75,48.35"/>
    </edge>
    <edge id=":1/5_4" function="internal">
        <lane id=":1/5_4_0" index="0" speed="0.10" length="10.32" shape="11.65,45.25 11.25,48.05 10.05,50.05 8.05,51.25 5.25,51.65"/>
    </edge>
    <edge id=":1/5_5" function="internal">
        <lane id=":1/5_5_0" index="0" speed="0.10" length="4.82" shape="11.65,45.25 10.83,46.49 10.00,46.90 9.18,46.49 8.35,45.25"/>
    </edge>
    <edge id=":1/5_6" function="internal">
        <lane id=":1/5_6_0" index="0" speed="0.10" length="5.00" shape="5.25,48.35 6.61,48.16 7.57,47.58 8.16,46.61 8.35,45.25"/>
    </edge>
    <edge id=":1/5_7" function="internal">
        <lane id=":1/5_7_0" index="0" speed="0.10" length="9.50" shape="5.25,48.35 14.75,48.35"/>
    </edge>
    <edge id=":1/5_8" function="internal">
        <lane id=":1/5_8_0" index="0" speed="0.10" length="2.41" shape="5.25,48.35 6.49,49.18 6.90,50.00"/>
    </edge>
    <edge id=":1/5_11" function="internal">
        <lane id=":1/5_11_0" index="0" speed="0.10" length="2.41" shape="6.90,50.00 6.49,50.83 5.25,51.65"/>
    </edge>
    <edge id=":2/0_0" function="internal">
        <lane id=":2/0_0_0" index="0" speed="0.10" length="5.00" shape="18.35,4.75 18.16,3.39 17.58,2.43 16.61,1.84 15.25,1.65"/>
    </edge>
    <edge id=":2/0_1" function="internal">
        <lane id=":2/0_1_0" index="0" speed="0.10" length="10.32" shape="18.35,4.75 18.75,1.95 19.95,-0.05 21.95,-1.25 24.75,-1.65"/>
    </edge>
    <edge id=":2/0_2" function="internal">
        <lane id=":2/0_2_0" index="0" speed="0.10" length="4.82" shape="18.35,4.75 19.17,3.51 20.00,3.10 20.82,3.51 21.65,4.75"/>
    </edge>
    <edge id=":2/0_3" function="internal">
        <lane id=":2/0_3_0" index="0" speed="0.10" length="5.00" shape="24.75,1.65 23.39,1.84 22.43,2.42 21.84,3.39 21.65,4.75"/>
    </edge>
    <edge id=":2/0_4" function="internal">