<?xml version="1.0" encoding="UTF-8"?>
<!-- generated on 2018-04-26 17:05:15.127924 by $Id$
  options: -n mapgrid.net.xml -e 28 -l <doubleminus>trip-attributes=departLane="best" departSpeed="max" departPos="random_free" -o trips.trips.xml
-->
<routes xmlns:xsi="http://www.w3.org/2001/XMLSchema-instance" xsi:noNamespaceSchemaLocation="http://sumo.dlr.de/xsd/routes_file.xsd">
    <trip id="0" depart="0.00" from="8/8to8/7" to="6/4to7/4" departLane="best" departSpeed="max" departPos="random_free"/>
    <trip id="1" depart="1.00" from="1/4to2/4" to="10/9to10/10" departLane="best" departSpeed="max" departPos="random_free"/>
    <trip id="2" depart="2.00" from="6/8to6/9" to="8/3to8/4" departLane="best" departSpeed="max" departPos="random_free"/>
    <trip id="3" depart="3.00" from="3/6to2/6" to="3/5to2/5" departLane="best" departSpeed="max" departPos="random_free"/>
    <trip id="4" depart="4.00" from="8/4to9/4" to="6/8to6/9" departLane="best" departSpeed="max" departPos="random_free"/>
    <trip id="5" depart="5.00" from="5/6to6/6" to="0/4to1/4" departLane="best" departSpeed="max" departPos="random_free"/>
    <trip id="6" depart="6.00" from="2/2to2/3" to="7/2to8/2" departLane="best" departSpeed="max" departPos="random_free"/>
    <trip id="7" depart="7.00" from="1/9to1/8" to="10/0to10/1" departLane="best" departSpeed="max" departPos="random_free"/>
    <trip id="8" depart="8.00" from="7/4to7/5" to="5/8to6/8" departLane="best" departSpeed="max" departPos="random_free"/>
    <trip id="9" depart="9.00" from="10/1to9/1" to="1/10to1/9" departLane="best" departSpeed="max" departPos="random_free"/>
    <trip id="10" depart="10.00" from="2/3to2/2" to="4/1to3/1" departLane="best" departSpeed="max" departPos="random_free"/>
    <trip id="11" depart="11.00" from="7/10to6/10" to="10/3to9/3" departLane="best" departSpeed="max" departPos="random_free"/>
    <trip id="12" depart="12.00" from="8/3to7/3" to="3/1to3/0" departLane="best" departSpeed="max" departPos="random_free"/>
    <trip id="13" depart="13.00" from="1/1to0/1" to="1/10to0/10" departLane="best" departSpeed="max" departPos="random_free"/>
    <trip id="14" depart="14.00" from="2/0to3/0" to="2/3to1/3" departLane="best" departSpeed="max" departPos="random_free"/>
    <trip id="15" depart="15.00" from="4/6to3/6" to="3/9to2/9" departLane="best" departSpeed="max" departPos="random_free"/>
    <trip id="16" depart="16.00" from="5/0to6/0" to="9/9to9/10" departLane="best" departSpeed="max" departPos="random_free"/>
    <trip id="17" depart="17.00" from="1/10to2/10" to="10/2to9/2" departLane="best" departSpeed="max" departPos="random_free"/>
    <trip id="18" depart="18.00" from="7/9to8/9" to="4/8to3/8" departLane="best" departSpeed="max" departPos="random_free"/>
    <trip id="19" depart="19.00" from="10/4to10/5" to="3/10to3/9" departLane="best" departSpeed="max" departPos="random_free"/>
    <trip id="20" depart="20.00" from="5/3to5/2" to="3/9to3/10" departLane="best" departSpeed="max" departPos="random_free"/>
    <trip id="21" depart="21.00" from="4/10to4/9" to="3/10to4/10" departLane="best" departSpeed="max" departPos="random_free"/>
    <trip id="22" depart="22.00" from="9/7to9/6" to="4/3to4/4" departLane="best" departSpeed="max" departPos="random_free"/>
    <trip id="23" depart="23.00" from="6/0to5/0" to="2/2to2/1" departLane="best" departSpeed="max" departPos="random_free"/>
    <trip id="24" depart="24.00" from="9/5to10/5" to="6/6to7/6" departLane="best" departSpeed="max" departPos="random_free"/>
    <trip id="25" depart="25.00" from="2/1to2/2" to="8/8to9/8" departLane="best" departSpeed="max" departPos="random_free"/>
    <trip id="26" depart="26.00" from="6/3to5/3" to="3/8to2/8" departLane="best" departSpeed="max" departPos="random_free"/>
    <trip id="27" depart="27.00" from="7/4to8/4" to="1/7to0/7" departLane="best" departSpeed="max" departPos="random_free"/>
</routes>
