<?xml version="1.0" encoding="UTF-8"?>

<!-- generated on Wed May  2 15:37:59 2018 by SUMO netconvert Version 0.32.0
<?xml version="1.0" encoding="UTF-8"?>

<configuration xmlns:xsi="http://www.w3.org/2001/XMLSchema-instance" xsi:noNamespaceSchemaLocation="http://sumo.dlr.de/xsd/netconvertConfiguration.xsd">

    <input>
        <osm-files value="map.osm"/>
    </input>

    <output>
        <output-file value="mapgrid.net.xml"/>
    </output>

    <projection>
        <proj.utm value="true"/>
    </projection>

    <tls_building>
        <tls.guess value="true"/>
    </tls_building>

    <building_defaults>
        <default.speed value="25"/>
    </building_defaults>

</configuration>
-->

<net version="0.27" xmlns:xsi="http://www.w3.org/2001/XMLSchema-instance" xsi:noNamespaceSchemaLocation="http://sumo.dlr.de/xsd/net_file.xsd">

    <location netOffset="-690928.54,806247.99" convBoundary="0.00,0.00,1459.09,1438.20" origBoundary="112.729415,-7.290664,112.742636,-7.277648" projParameter="+proj=utm +zone=49 +ellps=WGS84 +datum=WGS84 +units=m +no_defs"/>

    <type id="highway.bridleway" priority="1" numLanes="1" speed="2.78" allow="pedestrian" oneway="1" width="2.00"/>
    <type id="highway.bus_guideway" priority="1" numLanes="1" speed="8.33" allow="bus" oneway="1"/>
    <type id="highway.cycleway" priority="1" numLanes="1" speed="5.56" allow="bicycle" oneway="0" width="1.00"/>
    <type id="highway.footway" priority="1" numLanes="1" speed="2.78" allow="pedestrian" oneway="1" width="2.00"/>
    <type id="highway.ford" priority="1" numLanes="1" speed="2.78" allow="army" oneway="0"/>
    <type id="highway.living_street" priority="3" numLanes="1" speed="2.78" disallow="tram rail_urban rail rail_electric ship" oneway="0"/>
    <type id="highway.motorway" priority="13" numLanes="2" speed="44.44" allow="private emergency authority army vip passenger hov taxi bus coach delivery truck trailer motorcycle evehicle custom1 custom2" oneway="1"/>
    <type id="highway.motorway_link" priority="12" numLanes="1" speed="22.22" allow="private emergency authority army vip passenger hov taxi bus coach delivery truck trailer motorcycle evehicle custom1 custom2" oneway="1"/>
    <type id="highway.path" priority="1" numLanes="1" speed="2.78" allow="bicycle pedestrian" oneway="1" width="2.00"/>
    <type id="highway.pedestrian" priority="1" numLanes="1" speed="2.78" allow="pedestrian" oneway="1" width="2.00"/>
    <type id="highway.primary" priority="9" numLanes="2" speed="27.78" disallow="tram rail_urban rail rail_electric ship" oneway="0"/>
    <type id="highway.primary_link" priority="8" numLanes="1" speed="22.22" disallow="tram rail_urban rail rail_electric ship" oneway="0"/>
    <type id="highway.raceway" priority="14" numLanes="2" speed="83.33" allow="vip" oneway="0"/>
    <type id="highway.residential" priority="4" numLanes="1" speed="13.89" disallow="tram rail_urban rail rail_electric ship" oneway="0"/>
    <type id="highway.secondary" priority="7" numLanes="2" speed="27.78" disallow="tram rail_urban rail rail_electric ship" oneway="0"/>
    <type id="highway.secondary_link" priority="6" numLanes="1" speed="22.22" disallow="tram rail_urban rail rail_electric ship" oneway="0"/>
    <type id="highway.service" priority="2" numLanes="1" speed="5.56" allow="delivery bicycle pedestrian" oneway="0"/>
    <type id="highway.services" priority="1" numLanes="1" speed="8.33" disallow="tram rail_urban rail rail_electric ship" oneway="0"/>
    <type id="highway.stairs" priority="1" numLanes="1" speed="1.39" allow="pedestrian" oneway="1" width="2.00"/>
    <type id="highway.step" priority="1" numLanes="1" speed="1.39" allow="pedestrian" oneway="1" width="2.00"/>
    <type id="highway.steps" priority="1" numLanes="1" speed="1.39" allow="pedestrian" oneway="1" width="2.00"/>
    <type id="highway.tertiary" priority="6" numLanes="1" speed="22.22" disallow="tram rail_urban rail rail_electric ship" oneway="0"/>
    <type id="highway.tertiary_link" priority="5" numLanes="1" speed="22.22" disallow="tram rail_urban rail rail_electric ship" oneway="0"/>
    <type id="highway.track" priority="1" numLanes="1" speed="5.56" disallow="tram rail_urban rail rail_electric ship" oneway="0"/>
    <type id="highway.trunk" priority="11" numLanes="2" speed="27.78" disallow="tram rail_urban rail rail_electric bicycle pedestrian ship" oneway="0"/>
    <type id="highway.trunk_link" priority="10" numLanes="1" speed="22.22" disallow="tram rail_urban rail rail_electric bicycle pedestrian ship" oneway="0"/>
    <type id="highway.unclassified" priority="5" numLanes="1" speed="13.89" disallow="tram rail_urban rail rail_electric ship" oneway="0"/>
    <type id="highway.unsurfaced" priority="1" numLanes="1" speed="8.33" disallow="tram rail_urban rail rail_electric ship" oneway="0"/>
    <type id="railway.light_rail" priority="15" numLanes="1" speed="27.78" allow="rail_urban" oneway="1"/>
    <type id="railway.preserved" priority="15" numLanes="1" speed="27.78" allow="rail" oneway="1"/>
    <type id="railway.rail" priority="15" numLanes="1" speed="83.33" allow="rail rail_electric" oneway="1"/>
    <type id="railway.subway" priority="15" numLanes="1" speed="27.78" allow="rail_urban" oneway="1"/>
    <type id="railway.tram" priority="15" numLanes="1" speed="13.89" allow="tram" oneway="1"/>

    <edge id=":1091080340_0" function="internal">
        <lane id=":1091080340_0_0" index="0" disallow="tram rail_urban rail rail_electric ship" speed="22.22" length="11.05" shape="28.58,1397.61 17.65,1398.78"/>
        <lane id=":1091080340_0_1" index="1" disallow="tram rail_urban rail rail_electric ship" speed="22.22" length="11.05" shape="28.32,1394.32 17.27,1395.51"/>
    </edge>
    <edge id=":1091080340_2" function="internal">
        <lane id=":1091080340_2_0" index="0" disallow="tram rail_urban rail rail_electric ship" speed="22.22" length="10.49" shape="28.32,1394.32 24.83,1394.37 22.06,1393.92 20.03,1392.97 18.73,1391.52"/>
    </edge>
    <edge id=":1091080340_3" function="internal">
        <lane id=":1091080340_3_0" index="0" disallow="tram rail_urban rail rail_electric ship" speed="22.22" length="9.28" shape="28.32,1394.32 26.33,1394.12 24.48,1393.20 22.77,1391.55 21.20,1389.18"/>
    </edge>
    <edge id=":1091081422_0" function="internal">
        <lane id=":1091081422_0_0" index="0" disallow="tram rail_urban rail rail_electric ship" speed="22.22" length="0.31" shape="583.75,1317.67 583.44,1317.71"/>
    </edge>
    <edge id=":1091081422_1" function="internal">
        <lane id=":1091081422_1_0" index="0" disallow="tram rail_urban rail rail_electric ship" speed="22.22" length="2.41" shape="583.75,1317.67 582.40,1317.04 581.87,1316.29"/>
    </edge>
    <edge id=":1091081422_4" function="internal">
        <lane id=":1091081422_4_0" index="0" speed="22.22" length="2.41" shape="581.87,1316.29 582.16,1315.41 583.26,1314.41"/>
    </edge>
    <edge id=":1091081422_2" function="internal">
        <lane id=":1091081422_2_0" index="0" disallow="tram rail_urban rail rail_electric ship" speed="22.22" length="0.27" shape="582.99,1314.45 583.26,1314.41"/>
    </edge>
    <edge id=":1091081422_3" function="internal">
        <lane id=":1091081422_3_0" index="0" disallow="tram rail_urban rail rail_electric ship" speed="22.22" length="2.41" shape="582.99,1314.45 584.33,1315.09 584.85,1315.85"/>
    </edge>
    <edge id=":1091081422_5" function="internal">
        <lane id=":1091081422_5_0" index="0" speed="22.22" length="2.41" shape="584.85,1315.85 584.55,1316.73 583.44,1317.71"/>
    </edge>
    <edge id=":1091081777_0" function="internal">
        <lane id=":1091081777_0_0" index="0" disallow="tram rail_urban rail rail_electric ship" speed="27.78" length="9.48" shape="1253.01,1196.98 1254.75,1206.28"/>
        <lane id=":1091081777_0_1" index="1" disallow="tram rail_urban rail rail_electric ship" speed="27.78" length="9.48" shape="1249.76,1197.57 1251.51,1206.90"/>
    </edge>
    <edge id=":1091081777_2" function="internal">
        <lane id=":1091081777_2_0" index="0" disallow="tram rail_urban rail rail_electric ship" speed="25.00" length="7.85" shape="1249.76,1197.57 1250.08,1200.36 1249.87,1202.44 1249.13,1203.79 1247.87,1204.43"/>
    </edge>
    <edge id=":1091081777_3" function="internal">
        <lane id=":1091081777_3_0" index="0" disallow="tram rail_urban rail rail_electric ship" speed="25.00" length="7.84" shape="1247.27,1201.18 1248.68,1201.33 1249.85,1202.34 1250.80,1204.19 1251.51,1206.90"/>
    </edge>
    <edge id=":1091081777_4" function="internal">
        <lane id=":1091081777_4_0" index="0" disallow="tram rail_urban rail rail_electric ship" speed="22.22" length="4.82" shape="1247.27,1201.18 1248.64,1201.77 1249.19,1202.51 1248.94,1203.40 1247.87,1204.43"/>
    </edge>
    <edge id=":1339163336_0" function="internal">
        <lane id=":1339163336_0_0" index="0" disallow="tram rail_urban rail rail_electric ship" speed="27.78" length="9.50" shape="1002.22,924.36 993.52,920.54"/>
        <lane id=":1339163336_0_1" index="1" disallow="tram rail_urban rail rail_electric ship" speed="27.78" length="9.50" shape="1003.55,921.34 994.85,917.52"/>
    </edge>
    <edge id=":1339163336_2" function="internal">
        <lane id=":1339163336_2_0" index="0" disallow="tram rail_urban rail rail_electric ship" speed="20.84" length="7.91" shape="1003.55,921.34 1001.06,920.03 999.47,918.67 998.79,917.27 999.02,915.84"/>
    </edge>
    <edge id=":1339163336_3" function="internal">
        <lane id=":1339163336_3_0" index="0" disallow="tram rail_urban rail rail_electric ship" speed="20.84" length="7.88" shape="1002.01,917.24 1001.06,918.32 999.55,918.73 997.48,918.46 994.85,917.52"/>
    </edge>
    <edge id=":1339163336_4" function="internal">
        <lane id=":1339163336_4_0" index="0" disallow="tram rail_urban rail rail_electric ship" speed="13.89" length="4.82" shape="1002.01,917.24 1000.73,918.01 999.81,918.03 999.24,917.31 999.02,915.84"/>
    </edge>
    <edge id=":1339163343_0" function="internal">
        <lane id=":1339163343_0_0" index="0" disallow="tram rail_urban rail rail_electric ship" speed="18.05" length="4.98" shape="1054.10,813.06 1052.79,812.69 1051.67,812.82 1050.74,813.46 1049.99,814.59"/>
    </edge>
    <edge id=":1339163343_1" function="internal">
        <lane id=":1339163343_1_0" index="0" disallow="tram rail_urban rail rail_electric ship" speed="22.22" length="8.89" shape="1054.10,813.06 1051.83,811.82 1050.10,810.37 1048.92,808.69 1048.27,806.80"/>
    </edge>
    <edge id=":1339163343_2" function="internal">
        <lane id=":1339163343_2_0" index="0" disallow="tram rail_urban rail rail_electric ship" speed="22.22" length="2.58" shape="1054.10,813.06 1053.30,811.80 1053.26,810.88 1053.40,810.77"/>
    </edge>
    <edge id=":1339163343_9" function="internal">
        <lane id=":1339163343_9_0" index="0" speed="22.22" length="2.24" shape="1053.40,810.77 1053.97,810.30 1055.44,810.05"/>
    </edge>
    <edge id=":1339163343_3" function="internal">
        <lane id=":1339163343_3_0" index="0" disallow="tram rail_urban rail rail_electric ship" speed="22.22" length="5.71" shape="1051.51,806.19 1051.92,807.30 1052.71,808.31 1053.88,809.22 1055.44,810.05"/>
    </edge>
    <edge id=":1339163343_4" function="internal">
        <lane id=":1339163343_4_0" index="0" disallow="tram rail_urban rail rail_electric ship" speed="18.05" length="8.79" shape="1051.51,806.19 1051.86,808.73 1051.73,810.52 1051.10,812.24 1049.99,814.59"/>
    </edge>
    <edge id=":1339163343_5" function="internal">
        <lane id=":1339163343_5_0" index="0" disallow="tram rail_urban rail rail_electric ship" speed="22.22" length="2.19" shape="1051.51,806.19 1050.93,807.56 1050.37,807.98"/>
    </edge>
    <edge id=":1339163343_10" function="internal">
        <lane id=":1339163343_10_0" index="0" speed="22.22" length="2.63" shape="1050.37,807.98 1050.20,808.12 1049.31,807.87 1048.27,806.80"/>
    </edge>
    <edge id=":1339163343_6" function="internal">
        <lane id=":1339163343_6_0" index="0" disallow="tram rail_urban rail rail_electric ship" speed="18.05" length="6.71" shape="1047.00,813.20 1047.87,811.40 1048.38,810.09 1048.52,808.74 1048.27,806.80"/>
    </edge>
    <edge id=":1339163343_7" function="internal">
        <lane id=":1339163343_7_0" index="0" disallow="tram rail_urban rail rail_electric ship" speed="18.05" length="10.23" shape="1047.00,813.20 1048.53,810.86 1050.45,809.55 1052.75,809.28 1055.44,810.05"/>
    </edge>
    <edge id=":1339163343_8" function="internal">
        <lane id=":1339163343_8_0" index="0" disallow="tram rail_urban rail rail_electric ship" speed="13.89" length="4.82" shape="1047.00,813.20 1048.27,812.43 1049.20,812.40 1049.77,813.12 1049.99,814.59"/>
    </edge>
    <edge id=":1685219985_0" function="internal">
        <lane id=":1685219985_0_0" index="0" disallow="tram rail_urban rail rail_electric ship" speed="13.89" length="7.29" shape="677.36,1439.61 675.40,1439.50 673.87,1438.80 672.79,1437.52 672.16,1435.66"/>
    </edge>
    <edge id=":1685219985_1" function="internal">
        <lane id=":1685219985_1_0" index="0" disallow="tram rail_urban rail rail_electric ship" speed="13.89" length="2.82" shape="677.36,1439.61 676.06,1438.89 675.58,1438.10 675.74,1437.72"/>
    </edge>
    <edge id=":1685219985_4" function="internal">
        <lane id=":1685219985_4_0" index="0" speed="13.89" length="2.00" shape="675.74,1437.72 675.93,1437.24 677.10,1436.32"/>
    </edge>
    <edge id=":1685219985_2" function="internal">
        <lane id=":1685219985_2_0" index="0" disallow="tram rail_urban rail rail_electric ship" speed="13.89" length="2.38" shape="675.40,1435.03 675.60,1435.64 675.96,1436.06 676.45,1436.28 677.10,1436.32"/>
    </edge>
    <edge id=":1685219985_3" function="internal">
        <lane id=":1685219985_3_0" index="0" disallow="tram rail_urban rail rail_electric ship" speed="13.89" length="2.16" shape="675.40,1435.03 674.82,1436.40 674.29,1436.81"/>
    </edge>
    <edge id=":1685219985_5" function="internal">
        <lane id=":1685219985_5_0" index="0" speed="13.89" length="2.66" shape="674.29,1436.81 674.09,1436.96 673.20,1436.71 672.16,1435.66"/>
    </edge>
    <edge id=":1685220016_0" function="internal">
        <lane id=":1685220016_0_0" index="0" disallow="tram rail_urban rail rail_electric ship" speed="18.05" length="8.05" shape="951.00,1402.45 948.79,1402.58 947.09,1401.96 945.89,1400.60 945.21,1398.49"/>
    </edge>
    <edge id=":1685220016_1" function="internal">
        <lane id=":1685220016_1_0" index="0" disallow="tram rail_urban rail rail_electric ship" speed="13.89" length="4.82" shape="951.00,1402.45 949.62,1401.89 949.06,1401.16 949.30,1400.27 950.35,1399.22"/>
    </edge>
    <edge id=":1685220016_2" function="internal">
        <lane id=":1685220016_2_0" index="0" disallow="tram rail_urban rail rail_electric ship" speed="18.05" length="2.63" shape="948.46,1397.93 948.68,1398.61 949.07,1399.06 949.63,1399.26 950.35,1399.22"/>
    </edge>
    <edge id=":1685220016_3" function="internal">
        <lane id=":1685220016_3_0" index="0" disallow="tram rail_urban rail rail_electric ship" speed="22.22" length="4.82" shape="948.46,1397.93 947.86,1399.29 947.12,1399.83 946.23,1399.57 945.21,1398.49"/>
    </edge>
    <edge id=":1685220035_0" function="internal">
        <lane id=":1685220035_0_0" index="0" disallow="tram rail_urban rail rail_electric ship" speed="13.89" length="9.46" shape="1025.16,1387.61 1015.87,1389.43"/>
    </edge>
    <edge id=":1685220035_1" function="internal">
        <lane id=":1685220035_1_0" index="0" disallow="tram rail_urban rail rail_electric ship" speed="13.89" length="5.25" shape="1025.16,1387.61 1022.27,1387.74 1020.06,1386.91"/>
    </edge>
    <edge id=":1685220035_2" function="internal">
        <lane id=":1685220035_2_0" index="0" disallow="tram rail_urban rail rail_electric ship" speed="13.89" length="2.41" shape="1025.16,1387.61 1023.79,1387.03 1023.22,1386.30"/>
    </edge>
    <edge id=":1685220035_9" function="internal">
        <lane id=":1685220035_9_0" index="0" speed="13.89" length="5.25" shape="1020.06,1386.91 1018.54,1385.12 1017.69,1382.36"/>
    </edge>
    <edge id=":1685220035_10" function="internal">
        <lane id=":1685220035_10_0" index="0" speed="13.89" length="2.41" shape="1023.22,1386.30 1023.47,1385.41 1024.53,1384.37"/>
    </edge>
    <edge id=":1685220035_3" function="internal">
        <lane id=":1685220035_3_0" index="0" disallow="tram rail_urban rail rail_electric ship" speed="13.89" length="5.04" shape="1020.95,1381.84 1021.35,1383.17 1022.09,1384.03 1023.15,1384.43 1024.53,1384.37"/>
    </edge>
    <edge id=":1685220035_4" function="internal">
        <lane id=":1685220035_4_0" index="0" disallow="tram rail_urban rail rail_electric ship" speed="13.89" length="10.31" shape="1020.95,1381.84 1021.00,1384.71 1020.18,1386.92 1018.47,1388.50 1015.87,1389.43"/>
    </edge>
    <edge id=":1685220035_5" function="internal">
        <lane id=":1685220035_5_0" index="0" disallow="tram rail_urban rail rail_electric ship" speed="13.89" length="2.68" shape="1020.95,1381.84 1020.32,1383.20 1019.57,1383.73 1019.32,1383.65"/>
    </edge>
    <edge id=":1685220035_11" function="internal">
        <lane id=":1685220035_11_0" index="0" speed="13.89" length="2.14" shape="1019.32,1383.65 1018.69,1383.45 1017.69,1382.36"/>
    </edge>
    <edge id=":1685220035_6" function="internal">
        <lane id=":1685220035_6_0" index="0" disallow="tram rail_urban rail rail_electric ship" speed="13.89" length="5.15" shape="1015.22,1386.19 1016.49,1385.73 1017.32,1384.94 1017.72,1383.81 1017.69,1382.36"/>
    </edge>
    <edge id=":1685220035_7" function="internal">
        <lane id=":1685220035_7_0" index="0" disallow="tram rail_urban rail rail_electric ship" speed="13.89" length="9.49" shape="1015.22,1386.19 1024.53,1384.37"/>
    </edge>
    <edge id=":1685220035_8" function="internal">
        <lane id=":1685220035_8_0" index="0" disallow="tram rail_urban rail rail_electric ship" speed="13.89" length="2.41" shape="1015.22,1386.19 1016.60,1386.76 1017.16,1387.49"/>
    </edge>
    <edge id=":1685220035_12" function="internal">
        <lane id=":1685220035_12_0" index="0" speed="13.89" length="2.41" shape="1017.16,1387.49 1016.92,1388.38 1015.87,1389.43"/>
    </edge>
    <edge id=":1685220041_0" function="internal">
        <lane id=":1685220041_0_0" index="0" disallow="tram rail_urban rail rail_electric ship" speed="13.89" length="9.50" shape="1095.51,1374.11 1086.17,1375.90"/>
    </edge>
    <edge id=":1685220041_1" function="internal">
        <lane id=":1685220041_1_0" index="0" disallow="tram rail_urban rail rail_electric ship" speed="18.05" length="10.47" shape="1095.51,1374.11 1092.63,1374.25 1090.42,1373.42 1088.89,1371.63 1088.03,1368.88"/>
    </edge>
    <edge id=":1685220041_2" function="internal">
        <lane id=":1685220041_2_0" index="0" disallow="tram rail_urban rail rail_electric ship" speed="13.89" length="4.82" shape="1095.51,1374.11 1094.13,1373.53 1093.57,1372.80 1093.82,1371.91 1094.88,1370.87"/>
    </edge>
    <edge id=":1685220041_3" function="internal">
        <lane id=":1685220041_3_0" index="0" disallow="tram rail_urban rail rail_electric ship" speed="18.05" length="5.04" shape="1091.29,1368.36 1091.70,1369.68 1092.44,1370.54 1093.50,1370.94 1094.88,1370.87"/>
    </edge>
    <edge id=":1685220041_4" function="internal">
        <lane id=":1685220041_4_0" index="0" disallow="tram rail_urban rail rail_electric ship" speed="18.05" length="10.33" shape="1091.29,1368.36 1091.36,1371.21 1090.52,1373.43 1088.80,1374.99 1086.17,1375.90"/>
    </edge>
    <edge id=":1685220041_5" function="internal">
        <lane id=":1685220041_5_0" index="0" disallow="tram rail_urban rail rail_electric ship" speed="22.22" length="4.82" shape="1091.29,1368.36 1090.67,1369.71 1089.92,1370.25 1089.04,1369.97 1088.03,1368.88"/>
    </edge>
    <edge id=":1685220041_6" function="internal">
        <lane id=":1685220041_6_0" index="0" disallow="tram rail_urban rail rail_electric ship" speed="18.05" length="5.12" shape="1085.55,1372.66 1086.83,1372.21 1087.67,1371.43 1088.07,1370.32 1088.03,1368.88"/>
    </edge>
    <edge id=":1685220041_7" function="internal">
        <lane id=":1685220041_7_0" index="0" disallow="tram rail_urban rail rail_electric ship" speed="13.89" length="9.50" shape="1085.55,1372.66 1094.88,1370.87"/>
    </edge>
    <edge id=":1685220041_8" function="internal">
        <lane id=":1685220041_8_0" index="0" disallow="tram rail_urban rail rail_electric ship" speed="13.89" length="4.82" shape="1085.55,1372.66 1086.92,1373.24 1087.48,1373.97 1087.23,1374.86 1086.17,1375.90"/>
    </edge>
    <edge id=":1685220046_0" function="internal">
        <lane id=":1685220046_0_0" index="0" disallow="tram rail_urban rail rail_electric ship" speed="22.22" length="12.29" shape="212.32,1369.29 200.15,1371.02"/>
    </edge>
    <edge id=":1685220046_1" function="internal">
        <lane id=":1685220046_1_0" index="0" disallow="tram rail_urban rail rail_electric ship" speed="18.05" length="7.21" shape="212.32,1369.29 206.95,1369.44 205.33,1368.57"/>
    </edge>
    <edge id=":1685220046_2" function="internal">
        <lane id=":1685220046_2_0" index="0" disallow="tram rail_urban rail rail_electric ship" speed="22.22" length="2.41" shape="212.32,1369.29 210.98,1368.65 210.46,1367.89"/>
    </edge>
    <edge id=":1685220046_9" function="internal">
        <lane id=":1685220046_9_0" index="0" speed="18.05" length="9.53" shape="205.33,1368.57 204.31,1368.02 204.40,1365.02 207.22,1360.45"/>
    </edge>
    <edge id=":1685220046_10" function="internal">
        <lane id=":1685220046_10_0" index="0" speed="22.22" length="2.41" shape="210.46,1367.89 210.75,1367.01 211.87,1366.03"/>
    </edge>
    <edge id=":1685220046_3" function="internal">
        <lane id=":1685220046_3_0" index="0" disallow="tram rail_urban rail rail_electric ship" speed="18.05" length="6.71" shape="209.82,1362.48 208.69,1364.31 208.66,1365.51 209.71,1366.08 211.87,1366.03"/>
    </edge>
    <edge id=":1685220046_4" function="internal">
        <lane id=":1685220046_4_0" index="0" disallow="tram rail_urban rail rail_electric ship" speed="18.05" length="13.29" shape="209.82,1362.48 207.71,1365.37 205.69,1367.95 203.31,1369.92 200.15,1371.02"/>
    </edge>
    <edge id=":1685220046_5" function="internal">
        <lane id=":1685220046_5_0" index="0" disallow="tram rail_urban rail rail_electric ship" speed="13.89" length="4.82" shape="209.82,1362.48 208.41,1362.95 207.51,1362.76 207.11,1361.93 207.22,1360.45"/>
    </edge>
    <edge id=":1685220046_6" function="internal">
        <lane id=":1685220046_6_0" index="0" disallow="tram rail_urban rail rail_electric ship" speed="18.05" length="10.99" shape="199.65,1367.76 202.49,1366.85 204.14,1365.30 205.44,1363.15 207.22,1360.45"/>
    </edge>
    <edge id=":1685220046_7" function="internal">
        <lane id=":1685220046_7_0" index="0" disallow="tram rail_urban rail rail_electric ship" speed="22.22" length="12.34" shape="199.65,1367.76 211.87,1366.03"/>
    </edge>
    <edge id=":1685220046_8" function="internal">
        <lane id=":1685220046_8_0" index="0" disallow="tram rail_urban rail rail_electric ship" speed="22.22" length="2.41" shape="199.65,1367.76 201.00,1368.39 201.53,1369.14"/>
    </edge>
    <edge id=":1685220046_11" function="internal">
        <lane id=":1685220046_11_0" index="0" speed="22.22" length="2.41" shape="201.53,1369.14 201.25,1370.02 200.15,1371.02"/>
    </edge>
    <edge id=":1685220053_0" function="internal">
        <lane id=":1685220053_0_0" index="0" disallow="tram rail_urban rail rail_electric ship" speed="13.89" length="6.26" shape="1176.07,1358.62 1169.93,1359.83"/>
    </edge>
    <edge id=":1685220053_1" function="internal">
        <lane id=":1685220053_1_0" index="0" disallow="tram rail_urban rail rail_electric ship" speed="13.89" length="4.82" shape="1176.07,1358.62 1174.69,1358.06 1174.12,1357.33 1174.36,1356.44 1175.41,1355.38"/>
    </edge>
    <edge id=":1685220053_2" function="internal">
        <lane id=":1685220053_2_0" index="0" disallow="tram rail_urban rail rail_electric ship" speed="18.05" length="5.03" shape="1171.78,1352.92 1172.21,1354.23 1172.96,1355.08 1174.03,1355.47 1175.41,1355.38"/>
    </edge>
    <edge id=":1685220053_3" function="internal">
        <lane id=":1685220053_3_0" index="0" disallow="tram rail_urban rail rail_electric ship" speed="18.05" length="7.86" shape="1171.78,1352.92 1172.09,1355.73 1171.88,1357.82 1171.16,1359.19 1169.93,1359.83"/>
    </edge>
    <edge id=":1685220053_4" function="internal">
        <lane id=":1685220053_4_0" index="0" disallow="tram rail_urban rail rail_electric ship" speed="13.89" length="6.22" shape="1169.31,1356.59 1175.41,1355.38"/>
    </edge>
    <edge id=":1685220053_5" function="internal">
        <lane id=":1685220053_5_0" index="0" disallow="tram rail_urban rail rail_electric ship" speed="13.89" length="4.82" shape="1169.31,1356.59 1170.68,1357.17 1171.24,1357.90 1170.99,1358.79 1169.93,1359.83"/>
    </edge>
    <edge id=":1685220057_0" function="internal">
        <lane id=":1685220057_0_0" index="0" disallow="tram rail_urban rail rail_electric ship" speed="20.84" length="10.26" shape="1278.62,1331.23 1278.76,1334.03 1277.96,1336.21 1276.25,1337.78 1273.60,1338.72"/>
    </edge>
    <edge id=":1685220057_1" function="internal">
        <lane id=":1685220057_1_0" index="0" disallow="tram rail_urban rail rail_electric ship" speed="13.89" length="4.82" shape="1272.94,1335.49 1274.32,1336.05 1274.89,1336.77 1274.65,1337.67 1273.60,1338.72"/>
    </edge>
    <edge id=":1685220061_0" function="internal">
        <lane id=":1685220061_0_0" index="0" disallow="tram rail_urban rail rail_electric ship" speed="22.22" length="14.14" shape="455.89,1335.45 441.89,1337.40"/>
    </edge>
    <edge id=":1685220061_1" function="internal">
        <lane id=":1685220061_1_0" index="0" disallow="tram rail_urban rail rail_electric ship" speed="18.05" length="14.98" shape="455.89,1335.45 452.27,1335.25 448.80,1333.97 445.44,1332.12 442.12,1330.22"/>
    </edge>
    <edge id=":1685220061_2" function="internal">
        <lane id=":1685220061_2_0" index="0" disallow="tram rail_urban rail rail_electric ship" speed="22.22" length="2.41" shape="455.89,1335.45 454.55,1334.80 454.03,1334.04"/>
    </edge>
    <edge id=":1685220061_9" function="internal">
        <lane id=":1685220061_9_0" index="0" speed="22.22" length="2.41" shape="454.03,1334.04 454.32,1333.17 455.43,1332.18"/>
    </edge>
    <edge id=":1685220061_3" function="internal">
        <lane id=":1685220061_3_0" index="0" disallow="tram rail_urban rail rail_electric ship" speed="18.05" length="13.04" shape="443.66,1327.30 446.67,1329.15 449.35,1330.88 452.13,1332.04 455.43,1332.18"/>
    </edge>
    <edge id=":1685220061_4" function="internal">
        <lane id=":1685220061_4_0" index="0" disallow="tram rail_urban rail rail_electric ship" speed="18.05" length="19.47" shape="443.66,1327.30 449.09,1330.86 450.60,1333.72 448.20,1335.90 441.89,1337.40"/>
    </edge>
    <edge id=":1685220061_5" function="internal">
        <lane id=":1685220061_5_0" index="0" disallow="tram rail_urban rail rail_electric ship" speed="13.89" length="4.82" shape="443.66,1327.30 444.37,1328.61 444.35,1329.53 443.60,1330.07 442.12,1330.22"/>
    </edge>
    <edge id=":1685220061_6" function="internal">
        <lane id=":1685220061_6_0" index="0" disallow="tram rail_urban rail rail_electric ship" speed="18.05" length="7.53" shape="441.43,1334.13 443.88,1333.55 444.81,1332.71 444.22,1331.60 442.12,1330.22"/>
    </edge>
    <edge id=":1685220061_7" function="internal">
        <lane id=":1685220061_7_0" index="0" disallow="tram rail_urban rail rail_electric ship" speed="22.22" length="14.14" shape="441.43,1334.13 455.43,1332.18"/>
    </edge>
    <edge id=":1685220061_8" function="internal">
        <lane id=":1685220061_8_0" index="0" disallow="tram rail_urban rail rail_electric ship" speed="22.22" length="2.41" shape="441.43,1334.13 442.77,1334.77 443.29,1335.53"/>
    </edge>
    <edge id=":1685220061_10" function="internal">
        <lane id=":1685220061_10_0" index="0" speed="22.22" length="2.41" shape="443.29,1335.53 443.00,1336.41 441.89,1337.40"/>
    </edge>
    <edge id=":1685220062_0" function="internal">
        <lane id=":1685220062_0_0" index="0" disallow="tram rail_urban rail rail_electric ship" speed="18.05" length="5.05" shape="933.64,1332.16 933.21,1330.84 932.46,1329.99 931.39,1329.62 930.01,1329.72"/>
    </edge>
    <edge id=":1685220062_1" function="internal">
        <lane id=":1685220062_1_0" index="0" disallow="tram rail_urban rail rail_electric ship" speed="22.22" length="9.52" shape="933.64,1332.16 931.98,1322.79"/>
    </edge>
    <edge id=":1685220062_2" function="internal">
        <lane id=":1685220062_2_0" index="0" disallow="tram rail_urban rail rail_electric ship" speed="22.22" length="2.41" shape="933.64,1332.16 934.24,1330.80 934.99,1330.25"/>
    </edge>
    <edge id=":1685220062_9" function="internal">
        <lane id=":1685220062_9_0" index="0" speed="22.22" length="2.41" shape="934.99,1330.25 935.87,1330.52 936.90,1331.60"/>
    </edge>
    <edge id=":1685220062_3" function="internal">
        <lane id=":1685220062_3_0" index="0" disallow="tram rail_urban rail rail_electric ship" speed="22.22" length="9.54" shape="935.22,1322.20 936.90,1331.60"/>
    </edge>
    <edge id=":1685220062_4" function="internal">
        <lane id=":1685220062_4_0" index="0" disallow="tram rail_urban rail rail_electric ship" speed="18.05" length="5.22" shape="935.22,1322.20 935.32,1324.97 934.48,1327.15 934.39,1327.23"/>
    </edge>
    <edge id=":1685220062_5" function="internal">