<?xml version="1.0" encoding="UTF-8"?>
<!-- generated on 2018-05-02 21:55:47.262978 by $Id$
  options: -n mapgrid.net.xml -e 28 -l <doubleminus>trip-attributes=departLane="best" departSpeed="max" departPos="random_free" -o trips.trips.xml
-->
<routes xmlns:xsi="http://www.w3.org/2001/XMLSchema-instance" xsi:noNamespaceSchemaLocation="http://sumo.dlr.de/xsd/routes_file.xsd">
    <trip id="0" depart="0.00" from="418865870#1" to="-449480716" departLane="best" departSpeed="max" departPos="random_free"/>
    <trip id="1" depart="1.00" from="-156261367" to="-367619842" departLane="best" departSpeed="max" departPos="random_free"/>
    <trip id="2" depart="2.00" from="-303948405#1" to="28356498#1" departLane="best" departSpeed="max" departPos="random_free"/>
    <trip id="3" depart="3.00" from="448270567#4" to="-450298099" departLane="best" departSpeed="max" departPos="random_free"/>
    <trip id="4" depart="4.00" from="-156261251" to="286011720#0" departLane="best" departSpeed="max" departPos="random_free"/>
    <trip id="5" depart="5.00" from="286011720#4" to="303948407" departLane="best" departSpeed="max" departPos="random_free"/>
    <trip id="6" depart="6.00" from="-156261190" to="156261356#0" departLane="best" departSpeed="max" departPos="random_free"/>
    <trip id="7" depart="7.00" from="-422082677" to="-156261342#0" departLane="best" departSpeed="max" departPos="random_free"/>
    <trip id="8" depart="8.00" from="-422082695" to="222800434#1" departLane="best" departSpeed="max" departPos="random_free"/>
    <trip id="9" depart="9.00" from="369538882#0" to="-422082717#0" departLane="best" departSpeed="max" departPos="random_free"/>
    <trip id="10" depart="10.00" from="284980115#1" to="-156261356#1" departLane="best" departSpeed="max" departPos="random_free"/>
    <trip id="11" depart="11.00" from="-303948424" to="-156261310#0" departLane="best" departSpeed="max" departPos="random_free"/>
    <trip id="12" depart="12.00" from="-303948410" to="28410277#1" departLane="best" departSpeed="max" departPos="random_free"/>
    <trip id="13" depart="13.00" from="-156261609" to="156261502#0" departLane="best" departSpeed="max" departPos="random_free"/>
    <trip id="14" depart="14.00" from="367619846#2" to="-361247463#1" departLane="best" departSpeed="max" departPos="random_free"/>
    <trip id="15" depart="15.00" from="156261230" to="156261228" departLane="best" departSpeed="max" departPos="random_free"/>
    <trip id="16" depart="16.00" from="156261225" to="450298093" departLane="best" departSpeed="max" departPos="random_free"/>
    <trip id="17" depart="17.00" from="-156261367" to="-156261190" departLane="best" departSpeed="max" departPos="random_free"/>
    <trip id="18" depart="18.00" from="448270567#2" to="303948395#0" departLane="best" departSpeed="max" departPos="random_free"/>
    <trip id="19" depart="19.00" from="156261225" to="303948412#0" departLane="best" departSpeed="max" departPos="random_free"/>
    <trip id="20" depart="20.00" from="156261557" to="-303948407" departLane="best" departSpeed="max" departPos="random_free"/>
    <trip id="21" depart="21.00" from="448270567#6" to="-367619842" departLane="best" departSpeed="max" departPos="random_free"/>
    <trip id="22" depart="22.00" from="284980115#4" to="-156261194" departLane="best" departSpeed="max" departPos="random_free"/>
    <trip id="23" depart="23.00" from="-450298097" to="-353154171#0" departLane="best" departSpeed="max" departPos="random_free"/>
    <trip id="24" depart="24.00" from="28410277#1" to="-317197954#0" departLane="best" departSpeed="max" departPos="random_free"/>
    <trip id="25" depart="25.00" from="156261495#2" to="156261239" departLane="best" departSpeed="max" departPos="random_free"/>
    <trip id="26" depart="26.00" from="156261190" to="156261239" departLane="best" departSpeed="max" departPos="random_free"/>
    <trip id="27" depart="27.00" from="285027168#0" to="222799177" departLane="best" departSpeed="max" departPos="random_free"/>
</routes>
