<?xml version="1.0" encoding="UTF-8"?>
<!-- generated on 2018-05-03 22:46:52.206952 by $Id$
  options: -n mapgrid.net.xml -e 28 -l <doubleminus>trip-attributes=departLane="best" departSpeed="max" departPos="random_free" -o trips.trips.xml
-->
<routes xmlns:xsi="http://www.w3.org/2001/XMLSchema-instance" xsi:noNamespaceSchemaLocation="http://sumo.dlr.de/xsd/routes_file.xsd">
    <trip id="0" depart="0.00" from="0/2to1/2" to="7/5to7/6" departLane="best" departSpeed="max" departPos="random_free"/>
    <trip id="1" depart="1.00" from="1/9to2/9" to="4/0to4/1" departLane="best" departSpeed="max" departPos="random_free"/>
    <trip id="2" depart="2.00" from="8/1to8/2" to="4/2to4/3" departLane="best" departSpeed="max" departPos="random_free"/>
    <trip id="3" depart="3.00" from="3/4to3/3" to="8/8to9/8" departLane="best" departSpeed="max" departPos="random_free"/>
    <trip id="4" depart="4.00" from="10/5to10/4" to="1/5to1/6" departLane="best" departSpeed="max" departPos="random_free"/>
    <trip id="5" depart="5.00" from="6/0to6/1" to="3/3to4/3" departLane="best" departSpeed="max" departPos="random_free"/>
    <trip id="6" depart="6.00" from="4/3to4/2" to="9/10to8/10" departLane="best" departSpeed="max" departPos="random_free"/>
    <trip id="7" depart="7.00" from="2/3to2/4" to="2/5to2/6" departLane="best" departSpeed="max" departPos="random_free"/>
    <trip id="8" depart="8.00" from="5/9to5/10" to="10/4to9/4" departLane="best" departSpeed="max" departPos="random_free"/>
    <trip id="9" depart="9.00" from="10/1to10/2" to="9/5to9/4" departLane="best" departSpeed="max" departPos="random_free"/>
    <trip id="10" depart="10.00" from="1/3to1/2" to="6/3to7/3" departLane="best" departSpeed="max" departPos="random_free"/>
    <trip id="11" depart="11.00" from="8/10to7/10" to="9/8to10/8" departLane="best" departSpeed="max" departPos="random_free"/>
    <trip id="12" depart="12.00" from="3/8to3/7" to="6/8to6/7" departLane="best" departSpeed="max" departPos="random_free"/>
    <trip id="13" depart="13.00" from="9/7to8/7" to="10/8to9/8" departLane="best" departSpeed="max" departPos="random_free"/>
    <trip id="14" depart="14.00" from="8/1to7/1" to="0/6to0/7" departLane="best" departSpeed="max" departPos="random_free"/>
    <trip id="15" depart="15.00" from="7/4to8/4" to="8/5to8/4" departLane="best" departSpeed="max" departPos="random_free"/>
    <trip id="16" depart="16.00" from="5/8to6/8" to="6/3to7/3" departLane="best" departSpeed="max" departPos="random_free"/>
    <trip id="17" depart="17.00" from="9/7to9/6" to="0/8to1/8" departLane="best" departSpeed="max" departPos="random_free"/>
    <trip id="18" depart="18.00" from="10/1to9/1" to="4/6to5/6" departLane="best" departSpeed="max" departPos="random_free"/>
    <trip id="19" depart="19.00" from="0/0to0/1" to="8/6to9/6" departLane="best" departSpeed="max" departPos="random_free"/>
    <trip id="20" depart="20.00" from="10/3to10/4" to="1/7to0/7" departLane="best" departSpeed="max" departPos="random_free"/>
    <trip id="21" depart="21.00" from="0/0to1/0" to="8/4to8/3" departLane="best" departSpeed="max" departPos="random_free"/>
    <trip id="22" depart="22.00" from="0/9to1/9" to="10/8to9/8" departLane="best" departSpeed="max" departPos="random_free"/>
    <trip id="23" depart="23.00" from="0/3to1/3" to="9/5to8/5" departLane="best" departSpeed="max" departPos="random_free"/>
    <trip id="24" depart="24.00" from="0/4to0/3" to="6/1to5/1" departLane="best" departSpeed="max" departPos="random_free"/>
    <trip id="25" depart="25.00" from="4/1to3/1" to="1/1to1/2" departLane="best" departSpeed="max" departPos="random_free"/>
    <trip id="26" depart="26.00" from="5/6to6/6" to="9/5to8/5" departLane="best" departSpeed="max" departPos="random_free"/>
    <trip id="27" depart="27.00" from="7/9to7/10" to="7/7to8/7" departLane="best" departSpeed="max" departPos="random_free"/>
</routes>
