<?xml version="1.0" encoding="UTF-8"?>
<!-- generated on 2018-05-06 14:12:41.500345 by $Id$
  options: -n mapgrid.net.xml -e 28 -l <doubleminus>trip-attributes=departLane="best" departSpeed="max" departPos="random_free" -o trips.trips.xml
-->
<routes xmlns:xsi="http://www.w3.org/2001/XMLSchema-instance" xsi:noNamespaceSchemaLocation="http://sumo.dlr.de/xsd/routes_file.xsd">
    <trip id="0" depart="0.00" from="-303948407" to="-367938218" departLane="best" departSpeed="max" departPos="random_free"/>
    <trip id="1" depart="1.00" from="303948407" to="28716610" departLane="best" departSpeed="max" departPos="random_free"/>
    <trip id="2" depart="2.00" from="156261299#1" to="-353154174#0" departLane="best" departSpeed="max" departPos="random_free"/>
    <trip id="3" depart="3.00" from="-418865870#1" to="156261169" departLane="best" departSpeed="max" departPos="random_free"/>
    <trip id="4" depart="4.00" from="-156261367" to="451286570" departLane="best" departSpeed="max" departPos="random_free"/>
    <trip id="5" depart="5.00" from="450298097" to="-450525270#1" departLane="best" departSpeed="max" departPos="random_free"/>
    <trip id="6" depart="6.00" from="369538882#2" to="-156261312#1" departLane="best" departSpeed="max" departPos="random_free"/>
    <trip id="7" depart="7.00" from="369538882#1" to="448270567#4" departLane="best" departSpeed="max" departPos="random_free"/>
    <trip id="8" depart="8.00" from="451286570" to="284980115#4" departLane="best" departSpeed="max" departPos="random_free"/>
    <trip id="9" depart="9.00" from="222799177" to="307395967#2" departLane="best" departSpeed="max" departPos="random_free"/>
    <trip id="10" depart="10.00" from="-422082701#1" to="156261299#1" departLane="best" departSpeed="max" departPos="random_free"/>
    <trip id="11" depart="11.00" from="156261263" to="-156261194" departLane="best" departSpeed="max" departPos="random_free"/>
    <trip id="12" depart="12.00" from="156261342#0" to="317197954#2" departLane="best" departSpeed="max" departPos="random_free"/>
    <trip id="13" depart="13.00" from="28410233#1" to="-367619833#0" departLane="best" departSpeed="max" departPos="random_free"/>
    <trip id="14" depart="14.00" from="-156261356#3" to="-449480717#0" departLane="best" departSpeed="max" departPos="random_free"/>
    <trip id="15" depart="15.00" from="-449480717#1" to="422082701#1" departLane="best" departSpeed="max" departPos="random_free"/>
    <trip id="16" depart="16.00" from="450298081" to="303948346#1" departLane="best" departSpeed="max" departPos="random_free"/>
    <trip id="17" depart="17.00" from="-156261367" to="450298082" departLane="best" departSpeed="max" departPos="random_free"/>
    <trip id="18" depart="18.00" from="-156261310#1" to="353154171#0" departLane="best" departSpeed="max" departPos="random_free"/>
    <trip id="19" depart="19.00" from="353154181" to="-119109423#1" departLane="best" departSpeed="max" departPos="random_free"/>
    <trip id="20" depart="20.00" from="369538883#1" to="-28410277#7" departLane="best" departSpeed="max" departPos="random_free"/>
    <trip id="21" depart="21.00" from="-367619842" to="369538883#1" departLane="best" departSpeed="max" departPos="random_free"/>
    <trip id="22" depart="22.00" from="156261230" to="222800434#0" departLane="best" departSpeed="max" departPos="random_free"/>
    <trip id="23" depart="23.00" from="-156261169" to="376918047" departLane="best" departSpeed="max" departPos="random_free"/>
    <trip id="24" depart="24.00" from="327728882#4" to="156261279" departLane="best" departSpeed="max" departPos="random_free"/>
    <trip id="25" depart="25.00" from="353154174#1" to="-156261613#0" departLane="best" departSpeed="max" departPos="random_free"/>
    <trip id="26" depart="26.00" from="449480717#1" to="327728882#0" departLane="best" departSpeed="max" departPos="random_free"/>
    <trip id="27" depart="27.00" from="303948421#1" to="28410277#2" departLane="best" departSpeed="max" departPos="random_free"/>
</routes>
