<?xml version="1.0" encoding="UTF-8"?>
<!-- generated on 2018-05-03 18:09:36.999386 by $Id$
  options: -n mapgrid.net.xml -e 28 -l <doubleminus>trip-attributes=departLane="best" departSpeed="max" departPos="random_free" -o trips.trips.xml
-->
<routes xmlns:xsi="http://www.w3.org/2001/XMLSchema-instance" xsi:noNamespaceSchemaLocation="http://sumo.dlr.de/xsd/routes_file.xsd">
    <trip id="0" depart="0.00" from="-449480717#1" to="-449480718" departLane="best" departSpeed="max" departPos="random_free"/>
    <trip id="1" depart="1.00" from="-450298097" to="369538882#0" departLane="best" departSpeed="max" departPos="random_free"/>
    <trip id="2" depart="2.00" from="-119109424" to="369538887#2" departLane="best" departSpeed="max" departPos="random_free"/>
    <trip id="3" depart="3.00" from="-422082728#4" to="367938203" departLane="best" departSpeed="max" departPos="random_free"/>
    <trip id="4" depart="4.00" from="28410277#7" to="361247463#0" departLane="best" departSpeed="max" departPos="random_free"/>
    <trip id="5" depart="5.00" from="-156261342#0" to="435177473" departLane="best" departSpeed="max" departPos="random_free"/>
    <trip id="6" depart="6.00" from="422082701#0" to="353154171#1" departLane="best" departSpeed="max" departPos="random_free"/>
    <trip id="7" depart="7.00" from="156261613#1" to="450298090#1" departLane="best" departSpeed="max" departPos="random_free"/>
    <trip id="8" depart="8.00" from="-308511912" to="369538883#1" departLane="best" departSpeed="max" departPos="random_free"/>
    <trip id="9" depart="9.00" from="-156261488" to="284980115#2" departLane="best" departSpeed="max" departPos="random_free"/>
    <trip id="10" depart="10.00" from="448270567#1" to="540603497#0" departLane="best" departSpeed="max" departPos="random_free"/>
    <trip id="11" depart="11.00" from="447615377" to="369538887#2" departLane="best" departSpeed="max" departPos="random_free"/>
    <trip id="12" depart="12.00" from="156261225" to="-156261488" departLane="best" departSpeed="max" departPos="random_free"/>
    <trip id="13" depart="13.00" from="156261299#0" to="307395966" departLane="best" departSpeed="max" departPos="random_free"/>
    <trip id="14" depart="14.00" from="449480717#2" to="449480717#1" departLane="best" departSpeed="max" departPos="random_free"/>
    <trip id="15" depart="15.00" from="353154171#0" to="326480126" departLane="best" departSpeed="max" departPos="random_free"/>
    <trip id="16" depart="16.00" from="156261488" to="317197954#3" departLane="best" departSpeed="max" departPos="random_free"/>
    <trip id="17" depart="17.00" from="156261488" to="156261251" departLane="best" departSpeed="max" departPos="random_free"/>
    <trip id="18" depart="18.00" from="327728882#6" to="-156261342#0" departLane="best" departSpeed="max" departPos="random_free"/>
    <trip id="19" depart="19.00" from="156261502#5" to="-28410277#5" departLane="best" departSpeed="max" departPos="random_free"/>
    <trip id="20" depart="20.00" from="369538883#1" to="36054622#0" departLane="best" departSpeed="max" departPos="random_free"/>
    <trip id="21" depart="21.00" from="-422082668" to="156261230" departLane="best" departSpeed="max" departPos="random_free"/>
    <trip id="22" depart="22.00" from="448270567#1" to="156261190" departLane="best" departSpeed="max" departPos="random_free"/>
    <trip id="23" depart="23.00" from="-36048880#1" to="-367938203" departLane="best" departSpeed="max" departPos="random_free"/>
    <trip id="24" depart="24.00" from="-156261445" to="156261342#0" departLane="best" departSpeed="max" departPos="random_free"/>
    <trip id="25" depart="25.00" from="367619845#2" to="303948346#0" departLane="best" departSpeed="max" departPos="random_free"/>
    <trip id="26" depart="26.00" from="156261356#2" to="156261230" departLane="best" departSpeed="max" departPos="random_free"/>
    <trip id="27" depart="27.00" from="317197954#2" to="119109424" departLane="best" departSpeed="max" departPos="random_free"/>
</routes>
