<?xml version="1.0" encoding="UTF-8"?>
<!-- generated on 2018-04-26 02:36:40.512020 by $Id$
  options: -n mapgrid.net.xml -e 28 -l <doubleminus>trip-attributes=departLane="best" departSpeed="max" departPos="random_free" -o trips.trips.xml
-->
<routes xmlns:xsi="http://www.w3.org/2001/XMLSchema-instance" xsi:noNamespaceSchemaLocation="http://sumo.dlr.de/xsd/routes_file.xsd">
    <trip id="0" depart="0.00" from="4/8to4/9" to="3/6to2/6" departLane="best" departSpeed="max" departPos="random_free"/>
    <trip id="1" depart="1.00" from="2/3to2/4" to="10/8to9/8" departLane="best" departSpeed="max" departPos="random_free"/>
    <trip id="2" depart="2.00" from="8/5to8/4" to="1/10to1/9" departLane="best" departSpeed="max" departPos="random_free"/>
    <trip id="3" depart="3.00" from="1/9to0/9" to="1/2to1/3" departLane="best" departSpeed="max" departPos="random_free"/>
    <trip id="4" depart="4.00" from="1/9to1/10" to="9/9to9/10" departLane="best" departSpeed="max" departPos="random_free"/>
    <trip id="5" depart="5.00" from="2/9to2/8" to="2/8to3/8" departLane="best" departSpeed="max" departPos="random_free"/>
    <trip id="6" depart="6.00" from="5/4to5/3" to="7/5to7/4" departLane="best" departSpeed="max" departPos="random_free"/>
    <trip id="7" depart="7.00" from="0/2to0/1" to="9/4to9/5" departLane="best" departSpeed="max" departPos="random_free"/>
    <trip id="8" depart="8.00" from="4/2to4/3" to="7/5to7/6" departLane="best" departSpeed="max" departPos="random_free"/>
    <trip id="9" depart="9.00" from="6/7to7/7" to="7/8to7/7" departLane="best" departSpeed="max" departPos="random_free"/>
    <trip id="10" depart="10.00" from="7/4to8/4" to="9/0to10/0" departLane="best" departSpeed="max" departPos="random_free"/>
    <trip id="11" depart="11.00" from="8/9to7/9" to="9/9to9/10" departLane="best" departSpeed="max" departPos="random_free"/>
    <trip id="12" depart="12.00" from="10/3to9/3" to="6/7to6/8" departLane="best" departSpeed="max" departPos="random_free"/>
    <trip id="13" depart="13.00" from="8/9to8/8" to="5/4to5/5" departLane="best" departSpeed="max" departPos="random_free"/>
    <trip id="14" depart="14.00" from="1/6to1/5" to="0/5to1/5" departLane="best" departSpeed="max" departPos="random_free"/>
    <trip id="15" depart="15.00" from="3/2to4/2" to="4/2to4/3" departLane="best" departSpeed="max" departPos="random_free"/>
    <trip id="16" depart="16.00" from="9/4to8/4" to="10/4to10/3" departLane="best" departSpeed="max" departPos="random_free"/>
    <trip id="17" depart="17.00" from="6/7to6/8" to="4/7to5/7" departLane="best" departSpeed="max" departPos="random_free"/>
    <trip id="18" depart="18.00" from="4/2to5/2" to="7/2to7/1" departLane="best" departSpeed="max" departPos="random_free"/>
    <trip id="19" depart="19.00" from="3/5to3/6" to="1/9to0/9" departLane="best" departSpeed="max" departPos="random_free"/>
    <trip id="20" depart="20.00" from="7/3to8/3" to="9/3to8/3" departLane="best" departSpeed="max" departPos="random_free"/>
    <trip id="21" depart="21.00" from="1/6to1/7" to="4/1to3/1" departLane="best" departSpeed="max" departPos="random_free"/>
    <trip id="22" depart="22.00" from="8/3to8/4" to="0/8to1/8" departLane="best" departSpeed="max" departPos="random_free"/>
    <trip id="23" depart="23.00" from="7/9to7/10" to="5/4to5/3" departLane="best" departSpeed="max" departPos="random_free"/>
    <trip id="24" depart="24.00" from="5/3to4/3" to="7/4to6/4" departLane="best" departSpeed="max" departPos="random_free"/>
    <trip id="25" depart="25.00" from="2/10to3/10" to="8/6to8/5" departLane="best" departSpeed="max" departPos="random_free"/>
    <trip id="26" depart="26.00" from="5/3to5/2" to="7/8to7/7" departLane="best" departSpeed="max" departPos="random_free"/>
    <trip id="27" depart="27.00" from="3/5to3/6" to="0/4to0/3" departLane="best" departSpeed="max" departPos="random_free"/>
</routes>
