<?xml version="1.0" encoding="UTF-8"?>
<!-- generated on 2018-04-28 23:27:43.508832 by $Id$
  options: -n mapgrid.net.xml -e 48 -l <doubleminus>trip-attributes=departLane="best" departSpeed="max" departPos="random_free" color="1,0,0" -o trips.trips.xml
-->
<routes xmlns:xsi="http://www.w3.org/2001/XMLSchema-instance" xsi:noNamespaceSchemaLocation="http://sumo.dlr.de/xsd/routes_file.xsd">
    <trip id="0" depart="0.00" from="5/5to6/5" to="7/10to8/10" departLane="best" departSpeed="max" departPos="random_free" color="1,0,0"/>
    <trip id="1" depart="1.00" from="3/9to4/9" to="4/6to3/6" departLane="best" departSpeed="max" departPos="random_free" color="1,0,0"/>
    <trip id="2" depart="2.00" from="1/8to2/8" to="2/4to3/4" departLane="best" departSpeed="max" departPos="random_free" color="1,0,0"/>
    <trip id="3" depart="3.00" from="1/6to0/6" to="6/3to7/3" departLane="best" departSpeed="max" departPos="random_free" color="1,0,0"/>
    <trip id="4" depart="4.00" from="9/10to10/10" to="6/0to7/0" departLane="best" departSpeed="max" departPos="random_free" color="1,0,0"/>
    <trip id="5" depart="5.00" from="9/10to9/9" to="8/5to9/5" departLane="best" departSpeed="max" departPos="random_free" color="1,0,0"/>
    <trip id="6" depart="6.00" from="0/3to0/2" to="4/10to5/10" departLane="best" departSpeed="max" departPos="random_free" color="1,0,0"/>
    <trip id="7" depart="7.00" from="3/7to3/6" to="9/6to10/6" departLane="best" departSpeed="max" departPos="random_free" color="1,0,0"/>
    <trip id="8" depart="8.00" from="5/0to4/0" to="4/1to4/0" departLane="best" departSpeed="max" departPos="random_free" color="1,0,0"/>
    <trip id="9" depart="9.00" from="3/2to4/2" to="1/6to1/5" departLane="best" departSpeed="max" departPos="random_free" color="1,0,0"/>
    <trip id="10" depart="10.00" from="5/3to4/3" to="2/4to2/3" departLane="best" departSpeed="max" departPos="random_free" color="1,0,0"/>
    <trip id="11" depart="11.00" from="1/3to2/3" to="0/1to1/1" departLane="best" departSpeed="max" departPos="random_free" color="1,0,0"/>
    <trip id="12" depart="12.00" from="6/2to5/2" to="6/8to6/7" departLane="best" departSpeed="max" departPos="random_free" color="1,0,0"/>
    <trip id="13" depart="13.00" from="3/5to4/5" to="5/7to5/6" departLane="best" departSpeed="max" departPos="random_free" color="1,0,0"/>
    <trip id="14" depart="14.00" from="0/5to0/6" to="9/5to9/4" departLane="best" departSpeed="max" departPos="random_free" color="1,0,0"/>
    <trip id="15" depart="15.00" from="4/7to3/7" to="8/10to7/10" departLane="best" departSpeed="max" departPos="random_free" color="1,0,0"/>
    <trip id="16" depart="16.00" from="5/1to5/2" to="9/4to9/3" departLane="best" departSpeed="max" departPos="random_free" color="1,0,0"/>
    <trip id="17" depart="17.00" from="3/7to3/6" to="3/8to3/7" departLane="best" departSpeed="max" departPos="random_free" color="1,0,0"/>
    <trip id="18" depart="18.00" from="6/6to6/5" to="9/9to9/8" departLane="best" departSpeed="max" departPos="random_free" color="1,0,0"/>
    <trip id="19" depart="19.00" from="4/10to4/9" to="0/1to0/2" departLane="best" departSpeed="max" departPos="random_free" color="1,0,0"/>
    <trip id="20" depart="20.00" from="3/10to4/10" to="0/8to0/7" departLane="best" departSpeed="max" departPos="random_free" color="1,0,0"/>
    <trip id="21" depart="21.00" from="1/6to0/6" to="6/1to6/2" departLane="best" departSpeed="max" departPos="random_free" color="1,0,0"/>
    <trip id="22" depart="22.00" from="2/9to1/9" to="4/9to4/8" departLane="best" departSpeed="max" departPos="random_free" color="1,0,0"/>
    <trip id="23" depart="23.00" from="0/6to0/5" to="4/8to3/8" departLane="best" departSpeed="max" departPos="random_free" color="1,0,0"/>
    <trip id="24" depart="24.00" from="4/5to4/6" to="8/9to9/9" departLane="best" departSpeed="max" departPos="random_free" color="1,0,0"/>
    <trip id="25" depart="25.00" from="9/0to8/0" to="9/5to9/6" departLane="best" departSpeed="max" departPos="random_free" color="1,0,0"/>
    <trip id="26" depart="26.00" from="2/6to3/6" to="3/8to3/7" departLane="best" departSpeed="max" departPos="random_free" color="1,0,0"/>
    <trip id="27" depart="27.00" from="10/2to10/1" to="5/5to5/6" departLane="best" departSpeed="max" departPos="random_free" color="1,0,0"/>
    <trip id="28" depart="28.00" from="8/9to8/10" to="5/6to5/7" departLane="best" departSpeed="max" departPos="random_free" color="1,0,0"/>
    <trip id="29" depart="29.00" from="10/3to9/3" to="2/10to2/9" departLane="best" departSpeed="max" departPos="random_free" color="1,0,0"/>
    <trip id="30" depart="30.00" from="3/9to2/9" to="4/5to4/6" departLane="best" departSpeed="max" departPos="random_free" color="1,0,0"/>
    <trip id="31" depart="31.00" from="6/4to6/5" to="5/9to5/8" departLane="best" departSpeed="max" departPos="random_free" color="1,0,0"/>
    <trip id="32" depart="32.00" from="2/1to2/0" to="6/2to6/1" departLane="best" departSpeed="max" departPos="random_free" color="1,0,0"/>
    <trip id="33" depart="33.00" from="3/6to4/6" to="2/3to1/3" departLane="best" departSpeed="max" departPos="random_free" color="1,0,0"/>
    <trip id="34" depart="34.00" from="4/7to4/6" to="1/5to0/5" departLane="best" departSpeed="max" departPos="random_free" color="1,0,0"/>
    <trip id="35" depart="35.00" from="9/7to8/7" to="1/2to0/2" departLane="best" departSpeed="max" departPos="random_free" color="1,0,0"/>
    <trip id="36" depart="36.00" from="2/10to2/9" to="1/7to1/6" departLane="best" departSpeed="max" departPos="random_free" color="1,0,0"/>
    <trip id="37" depart="37.00" from="4/8to5/8" to="8/6to8/5" departLane="best" departSpeed="max" departPos="random_free" color="1,0,0"/>
    <trip id="38" depart="38.00" from="9/4to10/4" to="1/0to0/0" departLane="best" departSpeed="max" departPos="random_free" color="1,0,0"/>
    <trip id="39" depart="39.00" from="10/2to10/3" to="1/10to0/10" departLane="best" departSpeed="max" departPos="random_free" color="1,0,0"/>
    <trip id="40" depart="40.00" from="8/10to7/10" to="4/2to4/1" departLane="best" departSpeed="max" departPos="random_free" color="1,0,0"/>
    <trip id="41" depart="41.00" from="4/3to5/3" to="0/8to1/8" departLane="best" departSpeed="max" departPos="random_free" color="1,0,0"/>
    <trip id="42" depart="42.00" from="5/1to5/0" to="6/1to6/2" departLane="best" departSpeed="max" departPos="random_free" color="1,0,0"/>
    <trip id="43" depart="43.00" from="6/1to6/0" to="2/4to3/4" departLane="best" departSpeed="max" departPos="random_free" color="1,0,0"/>
    <trip id="44" depart="44.00" from="1/3to1/2" to="6/4to6/3" departLane="best" departSpeed="max" departPos="random_free" color="1,0,0"/>
    <trip id="45" depart="45.00" from="6/9to5/9" to="2/6to2/7" departLane="best" departSpeed="max" departPos="random_free" color="1,0,0"/>
    <trip id="46" depart="46.00" from="10/9to10/8" to="1/3to1/2" departLane="best" departSpeed="max" departPos="random_free" color="1,0,0"/>
    <trip id="47" depart="47.00" from="8/4to8/3" to="3/1to4/1" departLane="best" departSpeed="max" departPos="random_free" color="1,0,0"/>
</routes>
