<?xml version="1.0" encoding="UTF-8"?>
<!-- generated on 2018-05-03 17:12:41.051384 by $Id$
  options: -n mapgrid.net.xml -e 28 -l <doubleminus>trip-attributes=departLane="best" departSpeed="max" departPos="random_free" -o trips.trips.xml
-->
<routes xmlns:xsi="http://www.w3.org/2001/XMLSchema-instance" xsi:noNamespaceSchemaLocation="http://sumo.dlr.de/xsd/routes_file.xsd">
    <trip id="0" depart="0.00" from="367619842" to="327728882#7" departLane="best" departSpeed="max" departPos="random_free"/>
    <trip id="1" depart="1.00" from="-353154181" to="450298097" departLane="best" departSpeed="max" departPos="random_free"/>
    <trip id="2" depart="2.00" from="28410277#7" to="367619842" departLane="best" departSpeed="max" departPos="random_free"/>
    <trip id="3" depart="3.00" from="-28410277#7" to="448270577" departLane="best" departSpeed="max" departPos="random_free"/>
    <trip id="4" depart="4.00" from="-28410277#5" to="369538882#0" departLane="best" departSpeed="max" departPos="random_free"/>
    <trip id="5" depart="5.00" from="-450298092" to="307395967#1" departLane="best" departSpeed="max" departPos="random_free"/>
    <trip id="6" depart="6.00" from="-303948421#1" to="303948421#0" departLane="best" departSpeed="max" departPos="random_free"/>
    <trip id="7" depart="7.00" from="-422082701#1" to="455032297" departLane="best" departSpeed="max" departPos="random_free"/>
    <trip id="8" depart="8.00" from="-317197954#4" to="156261488" departLane="best" departSpeed="max" departPos="random_free"/>
    <trip id="9" depart="9.00" from="156261613#1" to="156261351#1" departLane="best" departSpeed="max" departPos="random_free"/>
    <trip id="10" depart="10.00" from="353154171#2" to="28410277#7" departLane="best" departSpeed="max" departPos="random_free"/>
    <trip id="11" depart="11.00" from="-303948405#0" to="422082715#1" departLane="best" departSpeed="max" departPos="random_free"/>
    <trip id="12" depart="12.00" from="422082677" to="-449480717#1" departLane="best" departSpeed="max" departPos="random_free"/>
    <trip id="13" depart="13.00" from="-451286564" to="-353154171#1" departLane="best" departSpeed="max" departPos="random_free"/>
    <trip id="14" depart="14.00" from="422082701#1" to="286011720#4" departLane="best" departSpeed="max" departPos="random_free"/>
    <trip id="15" depart="15.00" from="285027169" to="367938203" departLane="best" departSpeed="max" departPos="random_free"/>
    <trip id="16" depart="16.00" from="327728882#4" to="284980115#1" departLane="best" departSpeed="max" departPos="random_free"/>
    <trip id="17" depart="17.00" from="286011720#7" to="-156261299#1" departLane="best" departSpeed="max" departPos="random_free"/>
    <trip id="18" depart="18.00" from="-156261502#3" to="-156261263" departLane="best" departSpeed="max" departPos="random_free"/>
    <trip id="19" depart="19.00" from="-418865870#0" to="-449480717#0" departLane="best" departSpeed="max" departPos="random_free"/>
    <trip id="20" depart="20.00" from="156261554" to="-450298099" departLane="best" departSpeed="max" departPos="random_free"/>
    <trip id="21" depart="21.00" from="369652617" to="-36048880#1" departLane="best" departSpeed="max" departPos="random_free"/>
    <trip id="22" depart="22.00" from="-450298099" to="317197954#2" departLane="best" departSpeed="max" departPos="random_free"/>
    <trip id="23" depart="23.00" from="-367619833#0" to="-422082715#0" departLane="best" departSpeed="max" departPos="random_free"/>
    <trip id="24" depart="24.00" from="-376918047" to="156261190" departLane="best" departSpeed="max" departPos="random_free"/>
    <trip id="25" depart="25.00" from="-450298078" to="367619833#1" departLane="best" departSpeed="max" departPos="random_free"/>
    <trip id="26" depart="26.00" from="307395967#2" to="353154181" departLane="best" departSpeed="max" departPos="random_free"/>
    <trip id="27" depart="27.00" from="450298080" to="450298093" departLane="best" departSpeed="max" departPos="random_free"/>
</routes>
