<?xml version="1.0" encoding="UTF-8"?>
<!-- generated on 2018-04-07 17:43:06.078487 by $Id$
  options: -n mapgrid.net.xml -e 28 -l <doubleminus>trip-attributes=departLane="best" departSpeed="max" departPos="random_free" -o trips.trips.xml
-->
<routes xmlns:xsi="http://www.w3.org/2001/XMLSchema-instance" xsi:noNamespaceSchemaLocation="http://sumo.dlr.de/xsd/routes_file.xsd">
    <trip id="0" depart="0.00" from="3/6to4/6" to="4/10to3/10" departLane="best" departSpeed="max" departPos="random_free"/>
    <trip id="1" depart="1.00" from="7/8to7/9" to="0/9to0/8" departLane="best" departSpeed="max" departPos="random_free"/>
    <trip id="2" depart="2.00" from="4/7to4/8" to="8/9to8/10" departLane="best" departSpeed="max" departPos="random_free"/>
    <trip id="3" depart="3.00" from="10/8to10/9" to="6/6to6/7" departLane="best" departSpeed="max" departPos="random_free"/>
    <trip id="4" depart="4.00" from="10/6to10/5" to="3/10to3/9" departLane="best" departSpeed="max" departPos="random_free"/>
    <trip id="5" depart="5.00" from="7/9to8/9" to="3/6to3/5" departLane="best" departSpeed="max" departPos="random_free"/>
    <trip id="6" depart="6.00" from="2/7to1/7" to="6/3to5/3" departLane="best" departSpeed="max" departPos="random_free"/>
    <trip id="7" depart="7.00" from="4/10to3/10" to="4/7to4/8" departLane="best" departSpeed="max" departPos="random_free"/>
    <trip id="8" depart="8.00" from="4/0to3/0" to="7/9to7/8" departLane="best" departSpeed="max" departPos="random_free"/>
    <trip id="9" depart="9.00" from="6/4to7/4" to="9/8to9/9" departLane="best" departSpeed="max" departPos="random_free"/>
    <trip id="10" depart="10.00" from="8/4to8/5" to="10/3to10/2" departLane="best" departSpeed="max" departPos="random_free"/>
    <trip id="11" depart="11.00" from="6/9to7/9" to="7/0to8/0" departLane="best" departSpeed="max" departPos="random_free"/>
    <trip id="12" depart="12.00" from="2/1to1/1" to="7/6to7/5" departLane="best" departSpeed="max" departPos="random_free"/>
    <trip id="13" depart="13.00" from="5/8to5/9" to="1/1to2/1" departLane="best" departSpeed="max" departPos="random_free"/>
    <trip id="14" depart="14.00" from="10/6to10/5" to="4/0to3/0" departLane="best" departSpeed="max" departPos="random_free"/>
    <trip id="15" depart="15.00" from="8/8to7/8" to="6/3to6/2" departLane="best" departSpeed="max" departPos="random_free"/>
    <trip id="16" depart="16.00" from="5/0to5/1" to="6/5to5/5" departLane="best" departSpeed="max" departPos="random_free"/>
    <trip id="17" depart="17.00" from="4/10to4/9" to="6/4to7/4" departLane="best" departSpeed="max" departPos="random_free"/>
    <trip id="18" depart="18.00" from="2/2to2/3" to="0/3to0/4" departLane="best" departSpeed="max" departPos="random_free"/>
    <trip id="19" depart="19.00" from="3/5to4/5" to="9/7to8/7" departLane="best" departSpeed="max" departPos="random_free"/>
    <trip id="20" depart="20.00" from="4/5to3/5" to="9/6to9/5" departLane="best" departSpeed="max" departPos="random_free"/>
    <trip id="21" depart="21.00" from="9/3to9/4" to="7/2to6/2" departLane="best" departSpeed="max" departPos="random_free"/>
    <trip id="22" depart="22.00" from="10/2to10/1" to="9/9to8/9" departLane="best" departSpeed="max" departPos="random_free"/>
    <trip id="23" depart="23.00" from="6/10to6/9" to="7/6to7/7" departLane="best" departSpeed="max" departPos="random_free"/>
    <trip id="24" depart="24.00" from="7/4to8/4" to="7/9to7/8" departLane="best" departSpeed="max" departPos="random_free"/>
    <trip id="25" depart="25.00" from="10/1to9/1" to="7/4to8/4" departLane="best" departSpeed="max" departPos="random_free"/>
    <trip id="26" depart="26.00" from="2/4to2/5" to="6/3to5/3" departLane="best" departSpeed="max" departPos="random_free"/>
    <trip id="27" depart="27.00" from="10/6to9/6" to="4/7to3/7" departLane="best" departSpeed="max" departPos="random_free"/>
</routes>
