<?xml version="1.0" encoding="UTF-8"?>
<!-- generated on 2018-05-02 15:26:27.439314 by $Id$
  options: -n mapgrid.net.xml -e 38 -l <doubleminus>trip-attributes=departLane="best" departSpeed="max" departPos="random_free" -o trips.trips.xml
-->
<routes xmlns:xsi="http://www.w3.org/2001/XMLSchema-instance" xsi:noNamespaceSchemaLocation="http://sumo.dlr.de/xsd/routes_file.xsd">
    <trip id="0" depart="0.00" from="-156261356#3" to="284980115#7" departLane="best" departSpeed="max" departPos="random_free"/>
    <trip id="1" depart="1.00" from="284980115#5" to="450298088#0" departLane="best" departSpeed="max" departPos="random_free"/>
    <trip id="2" depart="2.00" from="-119109423#0" to="-303948360" departLane="best" departSpeed="max" departPos="random_free"/>
    <trip id="3" depart="3.00" from="156261228" to="156261312#0" departLane="best" departSpeed="max" departPos="random_free"/>
    <trip id="4" depart="4.00" from="-450298097" to="156261250" departLane="best" departSpeed="max" departPos="random_free"/>
    <trip id="5" depart="5.00" from="-156261356#0" to="-450525271" departLane="best" departSpeed="max" departPos="random_free"/>
    <trip id="6" depart="6.00" from="353154171#1" to="-422082717#1" departLane="best" departSpeed="max" departPos="random_free"/>
    <trip id="7" depart="7.00" from="156261312#1" to="422082693" departLane="best" departSpeed="max" departPos="random_free"/>
    <trip id="8" depart="8.00" from="450298097" to="156261342#0" departLane="best" departSpeed="max" departPos="random_free"/>
    <trip id="9" depart="9.00" from="156261310#0" to="450298097" departLane="best" departSpeed="max" departPos="random_free"/>
    <trip id="10" depart="10.00" from="284980115#1" to="361247463#1" departLane="best" departSpeed="max" departPos="random_free"/>
    <trip id="11" depart="11.00" from="-450298093" to="307395967#1" departLane="best" departSpeed="max" departPos="random_free"/>
    <trip id="12" depart="12.00" from="317197955" to="450298088#1" departLane="best" departSpeed="max" departPos="random_free"/>
    <trip id="13" depart="13.00" from="448270567#3" to="-156261263" departLane="best" departSpeed="max" departPos="random_free"/>
    <trip id="14" depart="14.00" from="156261342#0" to="-303948405#1" departLane="best" departSpeed="max" departPos="random_free"/>
    <trip id="15" depart="15.00" from="-156261299#0" to="284980115#8" departLane="best" departSpeed="max" departPos="random_free"/>
    <trip id="16" depart="16.00" from="-451286564" to="28356498#0" departLane="best" departSpeed="max" departPos="random_free"/>
    <trip id="17" depart="17.00" from="-361247463#0" to="369538887#1" departLane="best" departSpeed="max" departPos="random_free"/>
    <trip id="18" depart="18.00" from="448270567#1" to="-449480717#2" departLane="best" departSpeed="max" departPos="random_free"/>
    <trip id="19" depart="19.00" from="-156261225" to="-156261502#2" departLane="best" departSpeed="max" departPos="random_free"/>
    <trip id="20" depart="20.00" from="303948405#1" to="-156261169" departLane="best" departSpeed="max" departPos="random_free"/>
    <trip id="21" depart="21.00" from="-156261495#2" to="422082701#1" departLane="best" departSpeed="max" departPos="random_free"/>
    <trip id="22" depart="22.00" from="-367938218" to="-422082717#1" departLane="best" departSpeed="max" departPos="random_free"/>
    <trip id="23" depart="23.00" from="353154181" to="369538883#2" departLane="best" departSpeed="max" departPos="random_free"/>
    <trip id="24" depart="24.00" from="450298090#1" to="369538883#1" departLane="best" departSpeed="max" departPos="random_free"/>
    <trip id="25" depart="25.00" from="156261342#2" to="36048880#1" departLane="best" departSpeed="max" departPos="random_free"/>
    <trip id="26" depart="26.00" from="367938218" to="156261495#1" departLane="best" departSpeed="max" departPos="random_free"/>
    <trip id="27" depart="27.00" from="450298092" to="28410277#4" departLane="best" departSpeed="max" departPos="random_free"/>
    <trip id="28" depart="28.00" from="303948395#0" to="284980115#4" departLane="best" departSpeed="max" departPos="random_free"/>
    <trip id="29" depart="29.00" from="422082728#3" to="-422082693" departLane="best" departSpeed="max" departPos="random_free"/>
    <trip id="30" depart="30.00" from="-451286564" to="156261225" departLane="best" departSpeed="max" departPos="random_free"/>
    <trip id="31" depart="31.00" from="448272050" to="-450525270#0" departLane="best" departSpeed="max" departPos="random_free"/>
    <trip id="32" depart="32.00" from="-455032297" to="156261299#1" departLane="best" departSpeed="max" departPos="random_free"/>
    <trip id="33" depart="33.00" from="-119109423#0" to="156261502#6" departLane="best" departSpeed="max" departPos="random_free"/>
    <trip id="34" depart="34.00" from="317197954#2" to="-156261609" departLane="best" departSpeed="max" departPos="random_free"/>
    <trip id="35" depart="35.00" from="-450525268" to="156261228" departLane="best" departSpeed="max" departPos="random_free"/>
    <trip id="36" depart="36.00" from="-156261251" to="369538882#1" departLane="best" departSpeed="max" departPos="random_free"/>
    <trip id="37" depart="37.00" from="448270567#6" to="303948405#1" departLane="best" departSpeed="max" departPos="random_free"/>
</routes>
