<?xml version="1.0" encoding="UTF-8"?>
<!-- generated on 2018-05-04 18:30:13.571561 by $Id$
  options: -n mapgrid.net.xml -e 28 -l <doubleminus>trip-attributes=departLane="best" departSpeed="max" departPos="random_free" -o trips.trips.xml
-->
<routes xmlns:xsi="http://www.w3.org/2001/XMLSchema-instance" xsi:noNamespaceSchemaLocation="http://sumo.dlr.de/xsd/routes_file.xsd">
    <trip id="0" depart="0.00" from="10/7to9/7" to="0/0to1/0" departLane="best" departSpeed="max" departPos="random_free"/>
    <trip id="1" depart="1.00" from="0/3to1/3" to="5/6to4/6" departLane="best" departSpeed="max" departPos="random_free"/>
    <trip id="2" depart="2.00" from="8/10to9/10" to="6/4to6/3" departLane="best" departSpeed="max" departPos="random_free"/>
    <trip id="3" depart="3.00" from="3/9to3/8" to="3/7to2/7" departLane="best" departSpeed="max" departPos="random_free"/>
    <trip id="4" depart="4.00" from="6/0to5/0" to="6/10to5/10" departLane="best" departSpeed="max" departPos="random_free"/>
    <trip id="5" depart="5.00" from="6/6to5/6" to="4/7to5/7" departLane="best" departSpeed="max" departPos="random_free"/>
    <trip id="6" depart="6.00" from="10/10to10/9" to="6/7to7/7" departLane="best" departSpeed="max" departPos="random_free"/>
    <trip id="7" depart="7.00" from="2/6to2/7" to="6/1to5/1" departLane="best" departSpeed="max" departPos="random_free"/>
    <trip id="8" depart="8.00" from="6/3to5/3" to="7/10to7/9" departLane="best" departSpeed="max" departPos="random_free"/>
    <trip id="9" depart="9.00" from="6/3to6/4" to="3/7to3/8" departLane="best" departSpeed="max" departPos="random_free"/>
    <trip id="10" depart="10.00" from="2/2to2/3" to="1/4to2/4" departLane="best" departSpeed="max" departPos="random_free"/>
    <trip id="11" depart="11.00" from="5/10to4/10" to="3/3to4/3" departLane="best" departSpeed="max" departPos="random_free"/>
    <trip id="12" depart="12.00" from="1/10to2/10" to="3/8to2/8" departLane="best" departSpeed="max" departPos="random_free"/>
    <trip id="13" depart="13.00" from="9/5to8/5" to="1/1to2/1" departLane="best" departSpeed="max" departPos="random_free"/>
    <trip id="14" depart="14.00" from="0/1to0/2" to="3/9to3/8" departLane="best" departSpeed="max" departPos="random_free"/>
    <trip id="15" depart="15.00" from="5/9to5/8" to="4/0to3/0" departLane="best" departSpeed="max" departPos="random_free"/>
    <trip id="16" depart="16.00" from="6/2to6/3" to="6/10to5/10" departLane="best" departSpeed="max" departPos="random_free"/>
    <trip id="17" depart="17.00" from="7/8to7/7" to="5/1to5/0" departLane="best" departSpeed="max" departPos="random_free"/>
    <trip id="18" depart="18.00" from="8/5to8/4" to="4/0to5/0" departLane="best" departSpeed="max" departPos="random_free"/>
    <trip id="19" depart="19.00" from="9/10to9/9" to="8/1to7/1" departLane="best" departSpeed="max" departPos="random_free"/>
    <trip id="20" depart="20.00" from="2/9to1/9" to="4/8to4/7" departLane="best" departSpeed="max" departPos="random_free"/>
    <trip id="21" depart="21.00" from="8/0to9/0" to="6/3to6/2" departLane="best" departSpeed="max" departPos="random_free"/>
    <trip id="22" depart="22.00" from="2/1to2/2" to="5/7to6/7" departLane="best" departSpeed="max" departPos="random_free"/>
    <trip id="23" depart="23.00" from="8/6to8/5" to="3/6to3/7" departLane="best" departSpeed="max" departPos="random_free"/>
    <trip id="24" depart="24.00" from="6/7to7/7" to="8/5to8/4" departLane="best" departSpeed="max" departPos="random_free"/>
    <trip id="25" depart="25.00" from="4/1to5/1" to="7/9to8/9" departLane="best" departSpeed="max" departPos="random_free"/>
    <trip id="26" depart="26.00" from="2/4to3/4" to="7/3to8/3" departLane="best" departSpeed="max" departPos="random_free"/>
    <trip id="27" depart="27.00" from="2/1to2/2" to="7/10to6/10" departLane="best" departSpeed="max" departPos="random_free"/>
</routes>
