<?xml version="1.0" encoding="UTF-8"?>
<!-- generated on 2018-05-06 14:10:39.951145 by $Id$
  options: -n mapgrid.net.xml -e 28 -l <doubleminus>trip-attributes=departLane="best" departSpeed="max" departPos="random_free" -o trips.trips.xml
-->
<routes xmlns:xsi="http://www.w3.org/2001/XMLSchema-instance" xsi:noNamespaceSchemaLocation="http://sumo.dlr.de/xsd/routes_file.xsd">
    <trip id="0" depart="0.00" from="286011720#2" to="286011720#7" departLane="best" departSpeed="max" departPos="random_free"/>
    <trip id="1" depart="1.00" from="303948346#0" to="450298080" departLane="best" departSpeed="max" departPos="random_free"/>
    <trip id="2" depart="2.00" from="156261312#0" to="-367619833#0" departLane="best" departSpeed="max" departPos="random_free"/>
    <trip id="3" depart="3.00" from="156261263" to="450298097" departLane="best" departSpeed="max" departPos="random_free"/>
    <trip id="4" depart="4.00" from="-422082701#1" to="-28410233#0" departLane="best" departSpeed="max" departPos="random_free"/>
    <trip id="5" depart="5.00" from="307395967#2" to="284980115#4" departLane="best" departSpeed="max" departPos="random_free"/>
    <trip id="6" depart="6.00" from="-317197954#2" to="-156261228" departLane="best" departSpeed="max" departPos="random_free"/>
    <trip id="7" depart="7.00" from="450298086" to="156261250" departLane="best" departSpeed="max" departPos="random_free"/>
    <trip id="8" depart="8.00" from="303948346#1" to="450298078" departLane="best" departSpeed="max" departPos="random_free"/>
    <trip id="9" depart="9.00" from="156261228" to="156261342#0" departLane="best" departSpeed="max" departPos="random_free"/>
    <trip id="10" depart="10.00" from="-119109423#1" to="450525270#0" departLane="best" departSpeed="max" departPos="random_free"/>
    <trip id="11" depart="11.00" from="369538883#1" to="285027168#0" departLane="best" departSpeed="max" departPos="random_free"/>
    <trip id="12" depart="12.00" from="-449480717#2" to="-156261299#1" departLane="best" departSpeed="max" departPos="random_free"/>
    <trip id="13" depart="13.00" from="450298097" to="156261243" departLane="best" departSpeed="max" departPos="random_free"/>
    <trip id="14" depart="14.00" from="369538883#3" to="-422082715#0" departLane="best" departSpeed="max" departPos="random_free"/>
    <trip id="15" depart="15.00" from="422082677" to="28410277#7" departLane="best" departSpeed="max" departPos="random_free"/>
    <trip id="16" depart="16.00" from="284980115#1" to="156261495#0" departLane="best" departSpeed="max" departPos="random_free"/>
    <trip id="17" depart="17.00" from="-156261251" to="422082701#2" departLane="best" departSpeed="max" departPos="random_free"/>
    <trip id="18" depart="18.00" from="448270567#2" to="450525271" departLane="best" departSpeed="max" departPos="random_free"/>
    <trip id="19" depart="19.00" from="448270567#6" to="-156261190" departLane="best" departSpeed="max" departPos="random_free"/>
    <trip id="20" depart="20.00" from="28410277#1" to="369538883#1" departLane="best" departSpeed="max" departPos="random_free"/>
    <trip id="21" depart="21.00" from="-156261502#1" to="-418865870#0" departLane="best" departSpeed="max" departPos="random_free"/>
    <trip id="22" depart="22.00" from="-422082701#1" to="-353154174#0" departLane="best" departSpeed="max" departPos="random_free"/>
    <trip id="23" depart="23.00" from="156261243" to="369538880" departLane="best" departSpeed="max" departPos="random_free"/>
    <trip id="24" depart="24.00" from="307395967#1" to="448270567#2" departLane="best" departSpeed="max" departPos="random_free"/>
    <trip id="25" depart="25.00" from="447615376" to="-156261356#1" departLane="best" departSpeed="max" departPos="random_free"/>
    <trip id="26" depart="26.00" from="303948413" to="447615375" departLane="best" departSpeed="max" departPos="random_free"/>
    <trip id="27" depart="27.00" from="-156261523" to="353154181" departLane="best" departSpeed="max" departPos="random_free"/>
</routes>
