<?xml version="1.0" encoding="UTF-8"?>
<!-- generated on 2018-05-03 17:12:53.888552 by $Id$
  options: -n mapgrid.net.xml -e 28 -l <doubleminus>trip-attributes=departLane="best" departSpeed="max" departPos="random_free" -o trips.trips.xml
-->
<routes xmlns:xsi="http://www.w3.org/2001/XMLSchema-instance" xsi:noNamespaceSchemaLocation="http://sumo.dlr.de/xsd/routes_file.xsd">
    <trip id="0" depart="0.00" from="450525270#0" to="28410277#5" departLane="best" departSpeed="max" departPos="random_free"/>
    <trip id="1" depart="1.00" from="-422082686" to="156261310#1" departLane="best" departSpeed="max" departPos="random_free"/>
    <trip id="2" depart="2.00" from="-455032297" to="353154176#1" departLane="best" departSpeed="max" departPos="random_free"/>
    <trip id="3" depart="3.00" from="450525268" to="-156261251" departLane="best" departSpeed="max" departPos="random_free"/>
    <trip id="4" depart="4.00" from="156261367" to="-361247463#1" departLane="best" departSpeed="max" departPos="random_free"/>
    <trip id="5" depart="5.00" from="367619846#0" to="-156261169" departLane="best" departSpeed="max" departPos="random_free"/>
    <trip id="6" depart="6.00" from="369538882#0" to="156261299#0" departLane="best" departSpeed="max" departPos="random_free"/>
    <trip id="7" depart="7.00" from="-367613991" to="-156261238" departLane="best" departSpeed="max" departPos="random_free"/>
    <trip id="8" depart="8.00" from="-353154174#1" to="303948421#1" departLane="best" departSpeed="max" departPos="random_free"/>
    <trip id="9" depart="9.00" from="422082728#0" to="369538887#3" departLane="best" departSpeed="max" departPos="random_free"/>
    <trip id="10" depart="10.00" from="422082717#0" to="156261445" departLane="best" departSpeed="max" departPos="random_free"/>
    <trip id="11" depart="11.00" from="156261228" to="449480717#2" departLane="best" departSpeed="max" departPos="random_free"/>
    <trip id="12" depart="12.00" from="353154174#0" to="-36048880#0" departLane="best" departSpeed="max" departPos="random_free"/>
    <trip id="13" depart="13.00" from="-353154171#0" to="286011720#1" departLane="best" departSpeed="max" departPos="random_free"/>
    <trip id="14" depart="14.00" from="-28410277#1" to="156261312#1" departLane="best" departSpeed="max" departPos="random_free"/>
    <trip id="15" depart="15.00" from="-303948405#0" to="-156261251" departLane="best" departSpeed="max" departPos="random_free"/>
    <trip id="16" depart="16.00" from="369538887#1" to="156261488" departLane="best" departSpeed="max" departPos="random_free"/>
    <trip id="17" depart="17.00" from="156261225" to="353154176#1" departLane="best" departSpeed="max" departPos="random_free"/>
    <trip id="18" depart="18.00" from="36048880#1" to="-450525270#1" departLane="best" departSpeed="max" departPos="random_free"/>
    <trip id="19" depart="19.00" from="284980115#5" to="-156261243" departLane="best" departSpeed="max" departPos="random_free"/>
    <trip id="20" depart="20.00" from="-367619833#0" to="-156261168" departLane="best" departSpeed="max" departPos="random_free"/>
    <trip id="21" depart="21.00" from="-36048880#0" to="353154174#1" departLane="best" departSpeed="max" departPos="random_free"/>
    <trip id="22" depart="22.00" from="-156261250" to="448270567#5" departLane="best" departSpeed="max" departPos="random_free"/>
    <trip id="23" depart="23.00" from="-28410233#0" to="36054622#0" departLane="best" departSpeed="max" departPos="random_free"/>
    <trip id="24" depart="24.00" from="-450298093" to="367619842" departLane="best" departSpeed="max" departPos="random_free"/>
    <trip id="25" depart="25.00" from="-422082701#1" to="449480717#1" departLane="best" departSpeed="max" departPos="random_free"/>
    <trip id="26" depart="26.00" from="28410277#1" to="28410233#0" departLane="best" departSpeed="max" departPos="random_free"/>
    <trip id="27" depart="27.00" from="327728882#5" to="-119109423#0" departLane="best" departSpeed="max" departPos="random_free"/>
</routes>
