<?xml version="1.0" encoding="UTF-8"?>
<!-- generated on 2018-04-07 18:36:08.650067 by $Id$
  options: -n mapgrid.net.xml -e 28 -l <doubleminus>trip-attributes=departLane="best" departSpeed="max" departPos="random_free" -o trips.trips.xml
-->
<routes xmlns:xsi="http://www.w3.org/2001/XMLSchema-instance" xsi:noNamespaceSchemaLocation="http://sumo.dlr.de/xsd/routes_file.xsd">
    <trip id="0" depart="0.00" from="8/9to7/9" to="3/2to3/3" departLane="best" departSpeed="max" departPos="random_free"/>
    <trip id="1" depart="1.00" from="6/10to5/10" to="4/2to4/3" departLane="best" departSpeed="max" departPos="random_free"/>
    <trip id="2" depart="2.00" from="0/6to0/7" to="5/6to5/5" departLane="best" departSpeed="max" departPos="random_free"/>
    <trip id="3" depart="3.00" from="3/9to3/8" to="6/6to6/7" departLane="best" departSpeed="max" departPos="random_free"/>
    <trip id="4" depart="4.00" from="9/4to9/3" to="2/8to2/9" departLane="best" departSpeed="max" departPos="random_free"/>
    <trip id="5" depart="5.00" from="7/8to7/7" to="7/8to8/8" departLane="best" departSpeed="max" departPos="random_free"/>
    <trip id="6" depart="6.00" from="4/10to4/9" to="2/2to1/2" departLane="best" departSpeed="max" departPos="random_free"/>
    <trip id="7" depart="7.00" from="7/6to7/5" to="5/1to5/2" departLane="best" departSpeed="max" departPos="random_free"/>
    <trip id="8" depart="8.00" from="2/6to2/7" to="3/2to3/3" departLane="best" departSpeed="max" departPos="random_free"/>
    <trip id="9" depart="9.00" from="5/9to4/9" to="4/10to5/10" departLane="best" departSpeed="max" departPos="random_free"/>
    <trip id="10" depart="10.00" from="1/5to0/5" to="10/3to10/2" departLane="best" departSpeed="max" departPos="random_free"/>
    <trip id="11" depart="11.00" from="5/0to6/0" to="2/5to3/5" departLane="best" departSpeed="max" departPos="random_free"/>
    <trip id="12" depart="12.00" from="2/9to3/9" to="4/7to4/6" departLane="best" departSpeed="max" departPos="random_free"/>
    <trip id="13" depart="13.00" from="9/7to8/7" to="1/4to1/3" departLane="best" departSpeed="max" departPos="random_free"/>
    <trip id="14" depart="14.00" from="3/5to4/5" to="2/10to3/10" departLane="best" departSpeed="max" departPos="random_free"/>
    <trip id="15" depart="15.00" from="5/0to6/0" to="9/6to9/5" departLane="best" departSpeed="max" departPos="random_free"/>
    <trip id="16" depart="16.00" from="7/4to7/5" to="7/5to8/5" departLane="best" departSpeed="max" departPos="random_free"/>
    <trip id="17" depart="17.00" from="6/0to6/1" to="0/5to0/4" departLane="best" departSpeed="max" departPos="random_free"/>
    <trip id="18" depart="18.00" from="9/4to8/4" to="8/4to7/4" departLane="best" departSpeed="max" departPos="random_free"/>
    <trip id="19" depart="19.00" from="9/5to8/5" to="10/1to10/2" departLane="best" departSpeed="max" departPos="random_free"/>
    <trip id="20" depart="20.00" from="9/7to9/8" to="3/9to4/9" departLane="best" departSpeed="max" departPos="random_free"/>
    <trip id="21" depart="21.00" from="8/5to9/5" to="0/9to0/10" departLane="best" departSpeed="max" departPos="random_free"/>
    <trip id="22" depart="22.00" from="6/7to7/7" to="2/4to3/4" departLane="best" departSpeed="max" departPos="random_free"/>
    <trip id="23" depart="23.00" from="8/9to8/10" to="4/7to4/6" departLane="best" departSpeed="max" departPos="random_free"/>
    <trip id="24" depart="24.00" from="3/10to2/10" to="7/0to6/0" departLane="best" departSpeed="max" departPos="random_free"/>
    <trip id="25" depart="25.00" from="7/8to6/8" to="5/8to4/8" departLane="best" departSpeed="max" departPos="random_free"/>
    <trip id="26" depart="26.00" from="0/5to1/5" to="10/4to10/5" departLane="best" departSpeed="max" departPos="random_free"/>
    <trip id="27" depart="27.00" from="4/5to3/5" to="3/6to4/6" departLane="best" departSpeed="max" departPos="random_free"/>
</routes>
