<?xml version="1.0" encoding="UTF-8"?>
<!-- generated on 2018-05-03 23:44:26.597049 by $Id$
  options: -n mapgrid.net.xml -e 28 -l <doubleminus>trip-attributes=departLane="best" departSpeed="max" departPos="random_free" -o trips.trips.xml
-->
<routes xmlns:xsi="http://www.w3.org/2001/XMLSchema-instance" xsi:noNamespaceSchemaLocation="http://sumo.dlr.de/xsd/routes_file.xsd">
    <trip id="0" depart="0.00" from="6/2to7/2" to="5/8to4/8" departLane="best" departSpeed="max" departPos="random_free"/>
    <trip id="1" depart="1.00" from="3/7to3/8" to="0/1to0/0" departLane="best" departSpeed="max" departPos="random_free"/>
    <trip id="2" depart="2.00" from="9/3to10/3" to="6/0to5/0" departLane="best" departSpeed="max" departPos="random_free"/>
    <trip id="3" depart="3.00" from="4/1to3/1" to="10/6to9/6" departLane="best" departSpeed="max" departPos="random_free"/>
    <trip id="4" depart="4.00" from="6/4to6/5" to="0/1to0/2" departLane="best" departSpeed="max" departPos="random_free"/>
    <trip id="5" depart="5.00" from="3/2to4/2" to="7/9to6/9" departLane="best" departSpeed="max" departPos="random_free"/>
    <trip id="6" depart="6.00" from="9/4to8/4" to="2/7to2/8" departLane="best" departSpeed="max" departPos="random_free"/>
    <trip id="7" depart="7.00" from="2/0to3/0" to="8/10to7/10" departLane="best" departSpeed="max" departPos="random_free"/>
    <trip id="8" depart="8.00" from="4/5to3/5" to="3/2to2/2" departLane="best" departSpeed="max" departPos="random_free"/>
    <trip id="9" depart="9.00" from="5/2to4/2" to="8/7to8/8" departLane="best" departSpeed="max" departPos="random_free"/>
    <trip id="10" depart="10.00" from="3/10to3/9" to="10/5to10/4" departLane="best" departSpeed="max" departPos="random_free"/>
    <trip id="11" depart="11.00" from="0/1to0/0" to="1/9to1/10" departLane="best" departSpeed="max" departPos="random_free"/>
    <trip id="12" depart="12.00" from="0/5to0/4" to="3/10to2/10" departLane="best" departSpeed="max" departPos="random_free"/>
    <trip id="13" depart="13.00" from="6/8to6/7" to="10/9to10/8" departLane="best" departSpeed="max" departPos="random_free"/>
    <trip id="14" depart="14.00" from="10/6to10/5" to="0/8to0/9" departLane="best" departSpeed="max" departPos="random_free"/>
    <trip id="15" depart="15.00" from="3/3to2/3" to="4/4to5/4" departLane="best" departSpeed="max" departPos="random_free"/>
    <trip id="16" depart="16.00" from="3/10to3/9" to="10/6to10/7" departLane="best" departSpeed="max" departPos="random_free"/>
    <trip id="17" depart="17.00" from="2/7to1/7" to="3/4to3/5" departLane="best" departSpeed="max" departPos="random_free"/>
    <trip id="18" depart="18.00" from="9/6to10/6" to="6/1to6/2" departLane="best" departSpeed="max" departPos="random_free"/>
    <trip id="19" depart="19.00" from="7/2to6/2" to="5/8to5/9" departLane="best" departSpeed="max" departPos="random_free"/>
    <trip id="20" depart="20.00" from="9/9to8/9" to="1/7to0/7" departLane="best" departSpeed="max" departPos="random_free"/>
    <trip id="21" depart="21.00" from="6/0to7/0" to="1/0to2/0" departLane="best" departSpeed="max" departPos="random_free"/>
    <trip id="22" depart="22.00" from="9/1to8/1" to="0/10to1/10" departLane="best" departSpeed="max" departPos="random_free"/>
    <trip id="23" depart="23.00" from="3/2to2/2" to="2/5to1/5" departLane="best" departSpeed="max" departPos="random_free"/>
    <trip id="24" depart="24.00" from="5/6to4/6" to="8/3to8/4" departLane="best" departSpeed="max" departPos="random_free"/>
    <trip id="25" depart="25.00" from="5/5to4/5" to="2/4to3/4" departLane="best" departSpeed="max" departPos="random_free"/>
    <trip id="26" depart="26.00" from="2/9to3/9" to="2/6to2/5" departLane="best" departSpeed="max" departPos="random_free"/>
    <trip id="27" depart="27.00" from="6/5to7/5" to="5/2to5/3" departLane="best" departSpeed="max" departPos="random_free"/>
</routes>
