<?xml version="1.0" encoding="UTF-8"?>
<!-- generated on 2018-04-26 02:36:31.106947 by $Id$
  options: -n mapgrid.net.xml -e 28 -l <doubleminus>trip-attributes=departLane="best" departSpeed="max" departPos="random_free" -o trips.trips.xml
-->
<routes xmlns:xsi="http://www.w3.org/2001/XMLSchema-instance" xsi:noNamespaceSchemaLocation="http://sumo.dlr.de/xsd/routes_file.xsd">
    <trip id="0" depart="0.00" from="7/5to7/6" to="6/9to6/10" departLane="best" departSpeed="max" departPos="random_free"/>
    <trip id="1" depart="1.00" from="1/7to2/7" to="6/7to6/8" departLane="best" departSpeed="max" departPos="random_free"/>
    <trip id="2" depart="2.00" from="1/10to2/10" to="4/3to4/4" departLane="best" departSpeed="max" departPos="random_free"/>
    <trip id="3" depart="3.00" from="7/2to6/2" to="7/9to7/8" departLane="best" departSpeed="max" departPos="random_free"/>
    <trip id="4" depart="4.00" from="0/2to0/3" to="3/4to3/3" departLane="best" departSpeed="max" departPos="random_free"/>
    <trip id="5" depart="5.00" from="10/3to9/3" to="9/2to9/3" departLane="best" departSpeed="max" departPos="random_free"/>
    <trip id="6" depart="6.00" from="6/5to6/6" to="4/8to3/8" departLane="best" departSpeed="max" departPos="random_free"/>
    <trip id="7" depart="7.00" from="1/1to1/0" to="0/8to0/9" departLane="best" departSpeed="max" departPos="random_free"/>
    <trip id="8" depart="8.00" from="0/5to0/4" to="2/3to1/3" departLane="best" departSpeed="max" departPos="random_free"/>
    <trip id="9" depart="9.00" from="1/5to0/5" to="2/2to2/3" departLane="best" departSpeed="max" departPos="random_free"/>
    <trip id="10" depart="10.00" from="0/4to0/5" to="5/1to5/2" departLane="best" departSpeed="max" departPos="random_free"/>
    <trip id="11" depart="11.00" from="2/2to3/2" to="3/1to3/2" departLane="best" departSpeed="max" departPos="random_free"/>
    <trip id="12" depart="12.00" from="2/2to2/1" to="8/2to8/1" departLane="best" departSpeed="max" departPos="random_free"/>
    <trip id="13" depart="13.00" from="8/3to9/3" to="7/3to7/4" departLane="best" departSpeed="max" departPos="random_free"/>
    <trip id="14" depart="14.00" from="5/4to5/3" to="7/6to7/7" departLane="best" departSpeed="max" departPos="random_free"/>
    <trip id="15" depart="15.00" from="0/4to0/5" to="1/3to2/3" departLane="best" departSpeed="max" departPos="random_free"/>
    <trip id="16" depart="16.00" from="2/8to2/9" to="5/3to5/4" departLane="best" departSpeed="max" departPos="random_free"/>
    <trip id="17" depart="17.00" from="1/9to1/8" to="1/5to1/4" departLane="best" departSpeed="max" departPos="random_free"/>
    <trip id="18" depart="18.00" from="7/6to6/6" to="10/6to10/5" departLane="best" departSpeed="max" departPos="random_free"/>
    <trip id="19" depart="19.00" from="4/4to4/3" to="5/2to5/3" departLane="best" departSpeed="max" departPos="random_free"/>
    <trip id="20" depart="20.00" from="4/2to4/3" to="0/6to1/6" departLane="best" departSpeed="max" departPos="random_free"/>
    <trip id="21" depart="21.00" from="10/9to10/10" to="1/2to1/3" departLane="best" departSpeed="max" departPos="random_free"/>
    <trip id="22" depart="22.00" from="6/4to7/4" to="4/7to5/7" departLane="best" departSpeed="max" departPos="random_free"/>
    <trip id="23" depart="23.00" from="7/8to7/9" to="4/10to4/9" departLane="best" departSpeed="max" departPos="random_free"/>
    <trip id="24" depart="24.00" from="9/6to10/6" to="3/4to3/3" departLane="best" departSpeed="max" departPos="random_free"/>
    <trip id="25" depart="25.00" from="6/6to5/6" to="10/5to9/5" departLane="best" departSpeed="max" departPos="random_free"/>
    <trip id="26" depart="26.00" from="10/0to10/1" to="2/5to2/4" departLane="best" departSpeed="max" departPos="random_free"/>
    <trip id="27" depart="27.00" from="9/8to9/7" to="3/9to3/10" departLane="best" departSpeed="max" departPos="random_free"/>
</routes>
