<?xml version="1.0" encoding="UTF-8"?>
<!-- generated on 2018-04-06 23:43:34.881565 by $Id$
  options: -n mapgrid.net.xml -e 28 -l <doubleminus>trip-attributes=departLane="best" departSpeed="max" departPos="random_free" -o trips.trips.xml
-->
<routes xmlns:xsi="http://www.w3.org/2001/XMLSchema-instance" xsi:noNamespaceSchemaLocation="http://sumo.dlr.de/xsd/routes_file.xsd">
    <trip id="0" depart="0.00" from="10/10to10/9" to="1/3to2/3" departLane="best" departSpeed="max" departPos="random_free"/>
    <trip id="1" depart="1.00" from="2/7to3/7" to="10/3to9/3" departLane="best" departSpeed="max" departPos="random_free"/>
    <trip id="2" depart="2.00" from="1/0to0/0" to="0/10to1/10" departLane="best" departSpeed="max" departPos="random_free"/>
    <trip id="3" depart="3.00" from="0/5to0/4" to="4/2to4/3" departLane="best" departSpeed="max" departPos="random_free"/>
    <trip id="4" depart="4.00" from="8/8to8/9" to="9/7to9/6" departLane="best" departSpeed="max" departPos="random_free"/>
    <trip id="5" depart="5.00" from="5/0to4/0" to="2/6to3/6" departLane="best" departSpeed="max" departPos="random_free"/>
    <trip id="6" depart="6.00" from="4/2to4/3" to="6/3to5/3" departLane="best" departSpeed="max" departPos="random_free"/>
    <trip id="7" depart="7.00" from="4/6to5/6" to="1/3to1/4" departLane="best" departSpeed="max" departPos="random_free"/>
    <trip id="8" depart="8.00" from="7/4to7/5" to="6/6to5/6" departLane="best" departSpeed="max" departPos="random_free"/>
    <trip id="9" depart="9.00" from="9/9to8/9" to="0/2to0/3" departLane="best" departSpeed="max" departPos="random_free"/>
    <trip id="10" depart="10.00" from="6/8to5/8" to="8/1to8/2" departLane="best" departSpeed="max" departPos="random_free"/>
    <trip id="11" depart="11.00" from="1/8to2/8" to="8/5to7/5" departLane="best" departSpeed="max" departPos="random_free"/>
    <trip id="12" depart="12.00" from="1/8to0/8" to="1/6to0/6" departLane="best" departSpeed="max" departPos="random_free"/>
    <trip id="13" depart="13.00" from="6/6to5/6" to="8/0to8/1" departLane="best" departSpeed="max" departPos="random_free"/>
    <trip id="14" depart="14.00" from="7/4to8/4" to="4/4to5/4" departLane="best" departSpeed="max" departPos="random_free"/>
    <trip id="15" depart="15.00" from="9/8to9/9" to="7/0to7/1" departLane="best" departSpeed="max" departPos="random_free"/>
    <trip id="16" depart="16.00" from="8/4to7/4" to="6/2to6/1" departLane="best" departSpeed="max" departPos="random_free"/>
    <trip id="17" depart="17.00" from="4/3to4/2" to="4/10to3/10" departLane="best" departSpeed="max" departPos="random_free"/>
    <trip id="18" depart="18.00" from="0/5to0/6" to="6/5to6/4" departLane="best" departSpeed="max" departPos="random_free"/>
    <trip id="19" depart="19.00" from="2/5to3/5" to="4/5to4/6" departLane="best" departSpeed="max" departPos="random_free"/>
    <trip id="20" depart="20.00" from="8/8to9/8" to="1/2to0/2" departLane="best" departSpeed="max" departPos="random_free"/>
    <trip id="21" depart="21.00" from="2/5to1/5" to="8/5to8/6" departLane="best" departSpeed="max" departPos="random_free"/>
    <trip id="22" depart="22.00" from="3/4to4/4" to="6/1to6/0" departLane="best" departSpeed="max" departPos="random_free"/>
    <trip id="23" depart="23.00" from="7/2to7/1" to="6/6to6/5" departLane="best" departSpeed="max" departPos="random_free"/>
    <trip id="24" depart="24.00" from="7/2to6/2" to="4/2to3/2" departLane="best" departSpeed="max" departPos="random_free"/>
    <trip id="25" depart="25.00" from="2/5to1/5" to="5/7to4/7" departLane="best" departSpeed="max" departPos="random_free"/>
    <trip id="26" depart="26.00" from="4/8to4/9" to="2/7to2/6" departLane="best" departSpeed="max" departPos="random_free"/>
    <trip id="27" depart="27.00" from="1/4to2/4" to="5/8to6/8" departLane="best" departSpeed="max" departPos="random_free"/>
</routes>
