<?xml version="1.0" encoding="UTF-8"?>
<!-- generated on 2018-05-02 19:18:04.402414 by $Id$
  options: -n mapgrid.net.xml -e 28 -l <doubleminus>trip-attributes=departLane="best" departSpeed="max" departPos="random_free" -o trips.trips.xml
-->
<routes xmlns:xsi="http://www.w3.org/2001/XMLSchema-instance" xsi:noNamespaceSchemaLocation="http://sumo.dlr.de/xsd/routes_file.xsd">
    <trip id="0" depart="0.00" from="5/1to5/2" to="3/1to3/2" departLane="best" departSpeed="max" departPos="random_free"/>
    <trip id="1" depart="1.00" from="10/4to10/3" to="10/0to10/1" departLane="best" departSpeed="max" departPos="random_free"/>
    <trip id="2" depart="2.00" from="8/6to7/6" to="2/0to3/0" departLane="best" departSpeed="max" departPos="random_free"/>
    <trip id="3" depart="3.00" from="7/10to8/10" to="8/10to7/10" departLane="best" departSpeed="max" departPos="random_free"/>
    <trip id="4" depart="4.00" from="4/5to4/4" to="2/5to3/5" departLane="best" departSpeed="max" departPos="random_free"/>
    <trip id="5" depart="5.00" from="9/2to8/2" to="2/2to2/3" departLane="best" departSpeed="max" departPos="random_free"/>
    <trip id="6" depart="6.00" from="7/9to7/8" to="2/9to2/10" departLane="best" departSpeed="max" departPos="random_free"/>
    <trip id="7" depart="7.00" from="2/0to2/1" to="9/2to9/3" departLane="best" departSpeed="max" departPos="random_free"/>
    <trip id="8" depart="8.00" from="9/8to9/9" to="0/3to0/4" departLane="best" departSpeed="max" departPos="random_free"/>
    <trip id="9" depart="9.00" from="0/5to0/4" to="0/7to1/7" departLane="best" departSpeed="max" departPos="random_free"/>
    <trip id="10" depart="10.00" from="0/4to1/4" to="0/9to0/10" departLane="best" departSpeed="max" departPos="random_free"/>
    <trip id="11" depart="11.00" from="8/2to9/2" to="4/1to4/0" departLane="best" departSpeed="max" departPos="random_free"/>
    <trip id="12" depart="12.00" from="7/3to6/3" to="3/6to3/7" departLane="best" departSpeed="max" departPos="random_free"/>
    <trip id="13" depart="13.00" from="3/6to2/6" to="2/10to2/9" departLane="best" departSpeed="max" departPos="random_free"/>
    <trip id="14" depart="14.00" from="1/7to1/6" to="10/9to10/10" departLane="best" departSpeed="max" departPos="random_free"/>
    <trip id="15" depart="15.00" from="8/2to9/2" to="1/7to0/7" departLane="best" departSpeed="max" departPos="random_free"/>
    <trip id="16" depart="16.00" from="7/3to8/3" to="2/1to2/2" departLane="best" departSpeed="max" departPos="random_free"/>
    <trip id="17" depart="17.00" from="4/9to4/8" to="5/1to5/0" departLane="best" departSpeed="max" departPos="random_free"/>
    <trip id="18" depart="18.00" from="10/4to9/4" to="1/8to2/8" departLane="best" departSpeed="max" departPos="random_free"/>
    <trip id="19" depart="19.00" from="5/7to5/6" to="1/7to2/7" departLane="best" departSpeed="max" departPos="random_free"/>
    <trip id="20" depart="20.00" from="7/4to7/3" to="2/4to2/5" departLane="best" departSpeed="max" departPos="random_free"/>
    <trip id="21" depart="21.00" from="10/9to10/10" to="4/10to4/9" departLane="best" departSpeed="max" departPos="random_free"/>
    <trip id="22" depart="22.00" from="4/9to3/9" to="6/4to5/4" departLane="best" departSpeed="max" departPos="random_free"/>
    <trip id="23" depart="23.00" from="4/9to3/9" to="5/3to5/2" departLane="best" departSpeed="max" departPos="random_free"/>
    <trip id="24" depart="24.00" from="7/4to7/3" to="6/5to7/5" departLane="best" departSpeed="max" departPos="random_free"/>
    <trip id="25" depart="25.00" from="1/7to2/7" to="0/6to0/5" departLane="best" departSpeed="max" departPos="random_free"/>
    <trip id="26" depart="26.00" from="0/6to0/7" to="4/1to5/1" departLane="best" departSpeed="max" departPos="random_free"/>
    <trip id="27" depart="27.00" from="5/6to5/7" to="3/7to2/7" departLane="best" departSpeed="max" departPos="random_free"/>
</routes>
