<?xml version="1.0" encoding="UTF-8"?>
<!-- generated on 2018-05-02 15:38:54.150907 by $Id$
  options: -n mapgrid.net.xml -e 48 -l <doubleminus>trip-attributes=departLane="best" departSpeed="max" departPos="random_free" -o trips.trips.xml
-->
<routes xmlns:xsi="http://www.w3.org/2001/XMLSchema-instance" xsi:noNamespaceSchemaLocation="http://sumo.dlr.de/xsd/routes_file.xsd">
    <trip id="0" depart="0.00" from="-303948407" to="156261194" departLane="best" departSpeed="max" departPos="random_free"/>
    <trip id="1" depart="1.00" from="303948412#1" to="-156261356#3" departLane="best" departSpeed="max" departPos="random_free"/>
    <trip id="2" depart="2.00" from="353154174#1" to="317197954#2" departLane="best" departSpeed="max" departPos="random_free"/>
    <trip id="3" depart="3.00" from="-367613991" to="353154174#1" departLane="best" departSpeed="max" departPos="random_free"/>
    <trip id="4" depart="4.00" from="156261239" to="-156261299#1" departLane="best" departSpeed="max" departPos="random_free"/>
    <trip id="5" depart="5.00" from="448270567#5" to="156261228" departLane="best" departSpeed="max" departPos="random_free"/>
    <trip id="6" depart="6.00" from="28410277#4" to="28410233#1" departLane="best" departSpeed="max" departPos="random_free"/>
    <trip id="7" depart="7.00" from="353154181" to="222799332#1" departLane="best" departSpeed="max" departPos="random_free"/>
    <trip id="8" depart="8.00" from="156261495#0" to="353154171#1" departLane="best" departSpeed="max" departPos="random_free"/>
    <trip id="9" depart="9.00" from="449480717#1" to="369538882#1" departLane="best" departSpeed="max" departPos="random_free"/>
    <trip id="10" depart="10.00" from="-451295387" to="-156261310#1" departLane="best" departSpeed="max" departPos="random_free"/>
    <trip id="11" depart="11.00" from="303948421#1" to="-455032297" departLane="best" departSpeed="max" departPos="random_free"/>
    <trip id="12" depart="12.00" from="447615377" to="327728882#3" departLane="best" departSpeed="max" departPos="random_free"/>
    <trip id="13" depart="13.00" from="-156261263" to="450298088#0" departLane="best" departSpeed="max" departPos="random_free"/>
    <trip id="14" depart="14.00" from="222800434#1" to="156261495#2" departLane="best" departSpeed="max" departPos="random_free"/>
    <trip id="15" depart="15.00" from="-303948421#1" to="-156261488" departLane="best" departSpeed="max" departPos="random_free"/>
    <trip id="16" depart="16.00" from="-156261168" to="156261279" departLane="best" departSpeed="max" departPos="random_free"/>
    <trip id="17" depart="17.00" from="156261342#0" to="-28410277#7" departLane="best" departSpeed="max" departPos="random_free"/>
    <trip id="18" depart="18.00" from="-156261495#2" to="-450298097" departLane="best" departSpeed="max" departPos="random_free"/>
    <trip id="19" depart="19.00" from="303948405#1" to="-317197954#2" departLane="best" departSpeed="max" departPos="random_free"/>
    <trip id="20" depart="20.00" from="-449480717#1" to="-449480717#0" departLane="best" departSpeed="max" departPos="random_free"/>
    <trip id="21" depart="21.00" from="450298082" to="-156261251" departLane="best" departSpeed="max" departPos="random_free"/>
    <trip id="22" depart="22.00" from="-367619846#2" to="317197953" departLane="best" departSpeed="max" departPos="random_free"/>
    <trip id="23" depart="23.00" from="-156261613#1" to="156261351#1" departLane="best" departSpeed="max" departPos="random_free"/>
    <trip id="24" depart="24.00" from="307395967#0" to="422082728#3" departLane="best" departSpeed="max" departPos="random_free"/>
    <trip id="25" depart="25.00" from="-303948421#1" to="-422082715#0" departLane="best" departSpeed="max" departPos="random_free"/>
    <trip id="26" depart="26.00" from="156261251" to="156261342#2" departLane="best" departSpeed="max" departPos="random_free"/>
    <trip id="27" depart="27.00" from="448270567#1" to="286011720#2" departLane="best" departSpeed="max" departPos="random_free"/>
    <trip id="28" depart="28.00" from="156261367" to="156261299#0" departLane="best" departSpeed="max" departPos="random_free"/>
    <trip id="29" depart="29.00" from="303948428" to="-353154181" departLane="best" departSpeed="max" departPos="random_free"/>
    <trip id="30" depart="30.00" from="367619845#1" to="369538882#0" departLane="best" departSpeed="max" departPos="random_free"/>
    <trip id="31" depart="31.00" from="-418865870#0" to="-156261225" departLane="best" departSpeed="max" departPos="random_free"/>
    <trip id="32" depart="32.00" from="-353154174#0" to="317197954#2" departLane="best" departSpeed="max" departPos="random_free"/>
    <trip id="33" depart="33.00" from="353154181" to="-28410233#0" departLane="best" departSpeed="max" departPos="random_free"/>
    <trip id="34" depart="34.00" from="28410277#5" to="450298097" departLane="best" departSpeed="max" departPos="random_free"/>
    <trip id="35" depart="35.00" from="284980115#0" to="156261554" departLane="best" departSpeed="max" departPos="random_free"/>
    <trip id="36" depart="36.00" from="-28410233#1" to="450298092" departLane="best" departSpeed="max" departPos="random_free"/>
    <trip id="37" depart="37.00" from="369652617" to="286011720#4" departLane="best" departSpeed="max" departPos="random_free"/>
    <trip id="38" depart="38.00" from="-156261367" to="-156261554" departLane="best" departSpeed="max" departPos="random_free"/>
    <trip id="39" depart="39.00" from="-156261312#0" to="369538887#2" departLane="best" departSpeed="max" departPos="random_free"/>
    <trip id="40" depart="40.00" from="303948410" to="156261239" departLane="best" departSpeed="max" departPos="random_free"/>
    <trip id="41" depart="41.00" from="450298089" to="-367619842" departLane="best" departSpeed="max" departPos="random_free"/>
    <trip id="42" depart="42.00" from="156261495#2" to="285027169" departLane="best" departSpeed="max" departPos="random_free"/>
    <trip id="43" depart="43.00" from="422082701#1" to="448270567#1" departLane="best" departSpeed="max" departPos="random_free"/>
    <trip id="44" depart="44.00" from="367938218" to="303948407" departLane="best" departSpeed="max" departPos="random_free"/>
    <trip id="45" depart="45.00" from="-156261228" to="-353154181" departLane="best" departSpeed="max" departPos="random_free"/>
    <trip id="46" depart="46.00" from="317197955" to="450298082" departLane="best" departSpeed="max" departPos="random_free"/>
    <trip id="47" depart="47.00" from="-422082701#2" to="327728882#5" departLane="best" departSpeed="max" departPos="random_free"/>
</routes>
