<?xml version="1.0" encoding="UTF-8"?>
<!-- generated on 2018-04-26 02:30:29.315667 by $Id$
  options: -n mapgrid.net.xml -e 28 -l <doubleminus>trip-attributes=departLane="best" departSpeed="max" departPos="random_free" -o trips.trips.xml
-->
<routes xmlns:xsi="http://www.w3.org/2001/XMLSchema-instance" xsi:noNamespaceSchemaLocation="http://sumo.dlr.de/xsd/routes_file.xsd">
    <trip id="0" depart="0.00" from="5/7to4/7" to="6/4to7/4" departLane="best" departSpeed="max" departPos="random_free"/>
    <trip id="1" depart="1.00" from="3/5to4/5" to="5/0to6/0" departLane="best" departSpeed="max" departPos="random_free"/>
    <trip id="2" depart="2.00" from="5/0to4/0" to="4/7to4/6" departLane="best" departSpeed="max" departPos="random_free"/>
    <trip id="3" depart="3.00" from="9/8to9/7" to="1/0to2/0" departLane="best" departSpeed="max" departPos="random_free"/>
    <trip id="4" depart="4.00" from="3/7to4/7" to="8/8to9/8" departLane="best" departSpeed="max" departPos="random_free"/>
    <trip id="5" depart="5.00" from="9/0to9/1" to="3/4to3/3" departLane="best" departSpeed="max" departPos="random_free"/>
    <trip id="6" depart="6.00" from="8/3to7/3" to="3/1to3/0" departLane="best" departSpeed="max" departPos="random_free"/>
    <trip id="7" depart="7.00" from="4/8to3/8" to="8/1to7/1" departLane="best" departSpeed="max" departPos="random_free"/>
    <trip id="8" depart="8.00" from="9/6to9/5" to="6/9to6/8" departLane="best" departSpeed="max" departPos="random_free"/>
    <trip id="9" depart="9.00" from="2/7to3/7" to="0/1to0/2" departLane="best" departSpeed="max" departPos="random_free"/>
    <trip id="10" depart="10.00" from="9/7to9/8" to="7/0to8/0" departLane="best" departSpeed="max" departPos="random_free"/>
    <trip id="11" depart="11.00" from="7/5to8/5" to="3/5to3/6" departLane="best" departSpeed="max" departPos="random_free"/>
    <trip id="12" depart="12.00" from="8/1to7/1" to="8/7to8/8" departLane="best" departSpeed="max" departPos="random_free"/>
    <trip id="13" depart="13.00" from="9/5to9/6" to="4/3to5/3" departLane="best" departSpeed="max" departPos="random_free"/>
    <trip id="14" depart="14.00" from="0/8to0/9" to="2/0to3/0" departLane="best" departSpeed="max" departPos="random_free"/>
    <trip id="15" depart="15.00" from="9/5to8/5" to="3/10to3/9" departLane="best" departSpeed="max" departPos="random_free"/>
    <trip id="16" depart="16.00" from="10/3to10/4" to="9/7to10/7" departLane="best" departSpeed="max" departPos="random_free"/>
    <trip id="17" depart="17.00" from="6/2to6/3" to="4/10to5/10" departLane="best" departSpeed="max" departPos="random_free"/>
    <trip id="18" depart="18.00" from="1/10to0/10" to="9/3to10/3" departLane="best" departSpeed="max" departPos="random_free"/>
    <trip id="19" depart="19.00" from="8/3to7/3" to="10/2to9/2" departLane="best" departSpeed="max" departPos="random_free"/>
    <trip id="20" depart="20.00" from="9/3to9/4" to="9/4to10/4" departLane="best" departSpeed="max" departPos="random_free"/>
    <trip id="21" depart="21.00" from="8/4to8/5" to="8/1to9/1" departLane="best" departSpeed="max" departPos="random_free"/>
    <trip id="22" depart="22.00" from="6/0to6/1" to="7/7to6/7" departLane="best" departSpeed="max" departPos="random_free"/>
    <trip id="23" depart="23.00" from="3/1to2/1" to="3/7to2/7" departLane="best" departSpeed="max" departPos="random_free"/>
    <trip id="24" depart="24.00" from="1/1to0/1" to="1/9to1/10" departLane="best" departSpeed="max" departPos="random_free"/>
    <trip id="25" depart="25.00" from="4/4to4/5" to="7/8to7/7" departLane="best" departSpeed="max" departPos="random_free"/>
    <trip id="26" depart="26.00" from="7/3to6/3" to="2/2to2/1" departLane="best" departSpeed="max" departPos="random_free"/>
    <trip id="27" depart="27.00" from="10/5to10/4" to="8/8to7/8" departLane="best" departSpeed="max" departPos="random_free"/>
</routes>
