<?xml version="1.0" encoding="UTF-8"?>
<!-- generated on 2018-05-03 23:43:27.009970 by $Id$
  options: -n mapgrid.net.xml -e 28 -l <doubleminus>trip-attributes=departLane="best" departSpeed="max" departPos="random_free" -o trips.trips.xml
-->
<routes xmlns:xsi="http://www.w3.org/2001/XMLSchema-instance" xsi:noNamespaceSchemaLocation="http://sumo.dlr.de/xsd/routes_file.xsd">
    <trip id="0" depart="0.00" from="2/0to3/0" to="5/2to6/2" departLane="best" departSpeed="max" departPos="random_free"/>
    <trip id="1" depart="1.00" from="1/4to2/4" to="2/1to1/1" departLane="best" departSpeed="max" departPos="random_free"/>
    <trip id="2" depart="2.00" from="7/5to6/5" to="5/1to5/0" departLane="best" departSpeed="max" departPos="random_free"/>
    <trip id="3" depart="3.00" from="0/5to1/5" to="8/5to7/5" departLane="best" departSpeed="max" departPos="random_free"/>
    <trip id="4" depart="4.00" from="3/8to3/9" to="9/2to9/3" departLane="best" departSpeed="max" departPos="random_free"/>
    <trip id="5" depart="5.00" from="1/6to1/5" to="1/5to1/4" departLane="best" departSpeed="max" departPos="random_free"/>
    <trip id="6" depart="6.00" from="1/6to2/6" to="3/6to4/6" departLane="best" departSpeed="max" departPos="random_free"/>
    <trip id="7" depart="7.00" from="9/7to9/6" to="8/9to9/9" departLane="best" departSpeed="max" departPos="random_free"/>
    <trip id="8" depart="8.00" from="2/4to2/5" to="2/4to1/4" departLane="best" departSpeed="max" departPos="random_free"/>
    <trip id="9" depart="9.00" from="8/3to7/3" to="6/2to7/2" departLane="best" departSpeed="max" departPos="random_free"/>
    <trip id="10" depart="10.00" from="10/9to10/8" to="0/2to0/1" departLane="best" departSpeed="max" departPos="random_free"/>
    <trip id="11" depart="11.00" from="8/5to8/4" to="4/4to3/4" departLane="best" departSpeed="max" departPos="random_free"/>
    <trip id="12" depart="12.00" from="0/1to0/0" to="10/0to9/0" departLane="best" departSpeed="max" departPos="random_free"/>
    <trip id="13" depart="13.00" from="10/8to10/7" to="4/7to4/8" departLane="best" departSpeed="max" departPos="random_free"/>
    <trip id="14" depart="14.00" from="5/1to5/2" to="8/5to8/6" departLane="best" departSpeed="max" departPos="random_free"/>
    <trip id="15" depart="15.00" from="1/8to2/8" to="10/7to9/7" departLane="best" departSpeed="max" departPos="random_free"/>
    <trip id="16" depart="16.00" from="9/9to10/9" to="8/10to8/9" departLane="best" departSpeed="max" departPos="random_free"/>
    <trip id="17" depart="17.00" from="1/2to2/2" to="8/3to9/3" departLane="best" departSpeed="max" departPos="random_free"/>
    <trip id="18" depart="18.00" from="4/6to4/5" to="1/1to1/2" departLane="best" departSpeed="max" departPos="random_free"/>
    <trip id="19" depart="19.00" from="6/6to6/7" to="0/1to0/2" departLane="best" departSpeed="max" departPos="random_free"/>
    <trip id="20" depart="20.00" from="10/5to9/5" to="4/4to3/4" departLane="best" departSpeed="max" departPos="random_free"/>
    <trip id="21" depart="21.00" from="6/2to6/3" to="3/7to4/7" departLane="best" departSpeed="max" departPos="random_free"/>
    <trip id="22" depart="22.00" from="7/3to7/4" to="7/5to7/6" departLane="best" departSpeed="max" departPos="random_free"/>
    <trip id="23" depart="23.00" from="7/7to8/7" to="1/5to2/5" departLane="best" departSpeed="max" departPos="random_free"/>
    <trip id="24" depart="24.00" from="8/4to9/4" to="2/5to2/6" departLane="best" departSpeed="max" departPos="random_free"/>
    <trip id="25" depart="25.00" from="6/0to6/1" to="3/6to3/7" departLane="best" departSpeed="max" departPos="random_free"/>
    <trip id="26" depart="26.00" from="7/7to6/7" to="2/0to3/0" departLane="best" departSpeed="max" departPos="random_free"/>
    <trip id="27" depart="27.00" from="4/10to5/10" to="5/1to5/0" departLane="best" departSpeed="max" departPos="random_free"/>
</routes>
