<?xml version="1.0" encoding="UTF-8"?>
<!-- generated on 2018-04-06 23:37:18.291620 by $Id$
  options: -n mapgrid.net.xml -e 28 -l <doubleminus>trip-attributes=departLane="best" departSpeed="max" departPos="random_free" -o trips.trips.xml
-->
<routes xmlns:xsi="http://www.w3.org/2001/XMLSchema-instance" xsi:noNamespaceSchemaLocation="http://sumo.dlr.de/xsd/routes_file.xsd">
    <trip id="0" depart="0.00" from="0/0to1/0" to="0/6to0/5" departLane="best" departSpeed="max" departPos="random_free"/>
    <trip id="1" depart="1.00" from="10/1to10/2" to="0/5to0/4" departLane="best" departSpeed="max" departPos="random_free"/>
    <trip id="2" depart="2.00" from="2/4to2/3" to="8/2to7/2" departLane="best" departSpeed="max" departPos="random_free"/>
    <trip id="3" depart="3.00" from="8/3to8/2" to="8/1to8/0" departLane="best" departSpeed="max" departPos="random_free"/>
    <trip id="4" depart="4.00" from="3/10to3/9" to="1/7to2/7" departLane="best" departSpeed="max" departPos="random_free"/>
    <trip id="5" depart="5.00" from="3/3to3/2" to="10/2to10/1" departLane="best" departSpeed="max" departPos="random_free"/>
    <trip id="6" depart="6.00" from="7/8to7/7" to="3/7to3/8" departLane="best" departSpeed="max" departPos="random_free"/>
    <trip id="7" depart="7.00" from="7/9to6/9" to="3/0to3/1" departLane="best" departSpeed="max" departPos="random_free"/>
    <trip id="8" depart="8.00" from="9/9to9/8" to="1/6to0/6" departLane="best" departSpeed="max" departPos="random_free"/>
    <trip id="9" depart="9.00" from="5/8to5/7" to="5/0to6/0" departLane="best" departSpeed="max" departPos="random_free"/>
    <trip id="10" depart="10.00" from="7/5to8/5" to="3/0to3/1" departLane="best" departSpeed="max" departPos="random_free"/>
    <trip id="11" depart="11.00" from="7/2to6/2" to="8/3to7/3" departLane="best" departSpeed="max" departPos="random_free"/>
    <trip id="12" depart="12.00" from="0/2to0/1" to="5/8to5/9" departLane="best" departSpeed="max" departPos="random_free"/>
    <trip id="13" depart="13.00" from="8/8to7/8" to="4/3to4/2" departLane="best" departSpeed="max" departPos="random_free"/>
    <trip id="14" depart="14.00" from="8/3to8/4" to="3/7to3/6" departLane="best" departSpeed="max" departPos="random_free"/>
    <trip id="15" depart="15.00" from="3/9to4/9" to="5/5to4/5" departLane="best" departSpeed="max" departPos="random_free"/>
    <trip id="16" depart="16.00" from="2/8to1/8" to="0/3to1/3" departLane="best" departSpeed="max" departPos="random_free"/>
    <trip id="17" depart="17.00" from="3/4to2/4" to="7/4to7/3" departLane="best" departSpeed="max" departPos="random_free"/>
    <trip id="18" depart="18.00" from="6/7to7/7" to="1/0to1/1" departLane="best" departSpeed="max" departPos="random_free"/>
    <trip id="19" depart="19.00" from="4/6to3/6" to="7/6to7/5" departLane="best" departSpeed="max" departPos="random_free"/>
    <trip id="20" depart="20.00" from="4/10to5/10" to="9/10to8/10" departLane="best" departSpeed="max" departPos="random_free"/>
    <trip id="21" depart="21.00" from="1/8to1/9" to="9/2to8/2" departLane="best" departSpeed="max" departPos="random_free"/>
    <trip id="22" depart="22.00" from="6/7to5/7" to="3/5to4/5" departLane="best" departSpeed="max" departPos="random_free"/>
    <trip id="23" depart="23.00" from="4/3to4/4" to="6/3to7/3" departLane="best" departSpeed="max" departPos="random_free"/>
    <trip id="24" depart="24.00" from="6/7to6/6" to="2/3to3/3" departLane="best" departSpeed="max" departPos="random_free"/>
    <trip id="25" depart="25.00" from="0/3to0/2" to="9/9to10/9" departLane="best" departSpeed="max" departPos="random_free"/>
    <trip id="26" depart="26.00" from="8/1to8/2" to="7/9to7/8" departLane="best" departSpeed="max" departPos="random_free"/>
    <trip id="27" depart="27.00" from="9/4to10/4" to="1/2to1/3" departLane="best" departSpeed="max" departPos="random_free"/>
</routes>
